MODEL 1
REMARK VINA RESULT:    -5.876      0.000      0.000
REMARK INTER + INTRA:          -7.115
REMARK INTER:                  -6.771
REMARK INTRA:                  -0.344
REMARK CONF_INDEPENDENT:        0.895
REMARK UNBOUND:                 0.344
REMARK SMILES O=[N+]([O-])CCc1ccccc1
REMARK SMILES IDX 5 1 6 4 7 5 11 6 8 7 10 9 9 11 4 15 2 18 1 19 3 20
REMARK H PARENT 5 2 5 3 7 8 11 10 8 12 10 13 9 14 4 16 4 17
REMARK Flexibility Score: inf
ROOT
ATOM      1  C   UNL     1       4.428  -3.862  19.700  1.00  0.00     0.037 C 
ATOM      2  H   UNL     1       3.364  -3.849  19.972  1.00  0.00     0.038 H 
ATOM      3  H   UNL     1       4.858  -4.729  20.221  1.00  0.00     0.038 H 
ENDROOT
BRANCH   1   4
ATOM      4  C   UNL     1       4.566  -4.089  18.213  1.00  0.00    -0.041 A 
ATOM      5  C   UNL     1       3.478  -3.891  17.350  1.00  0.00    -0.059 A 
ATOM      6  C   UNL     1       5.801  -4.466  17.667  1.00  0.00    -0.059 A 
ATOM      7  C   UNL     1       3.621  -4.073  15.974  1.00  0.00    -0.062 A 
ATOM      8  H   UNL     1       2.511  -3.577  17.737  1.00  0.00     0.063 H 
ATOM      9  C   UNL     1       5.943  -4.644  16.289  1.00  0.00    -0.062 A 
ATOM     10  H   UNL     1       6.668  -4.615  18.307  1.00  0.00     0.063 H 
ATOM     11  C   UNL     1       4.854  -4.448  15.443  1.00  0.00    -0.062 A 
ATOM     12  H   UNL     1       2.773  -3.914  15.313  1.00  0.00     0.062 H 
ATOM     13  H   UNL     1       6.907  -4.928  15.874  1.00  0.00     0.062 H 
ATOM     14  H   UNL     1       4.967  -4.580  14.370  1.00  0.00     0.062 H 
ENDBRANCH   1   4
BRANCH   1  15
ATOM     15  C   UNL     1       5.088  -2.573  20.160  1.00  0.00     0.207 C 
ATOM     16  H   UNL     1       4.758  -2.262  21.156  1.00  0.00     0.111 H 
ATOM     17  H   UNL     1       4.938  -1.741  19.463  1.00  0.00     0.111 H 
BRANCH  15  18
ATOM     18  N   UNL     1       6.562  -2.819  20.231  1.00  0.00     0.020 N 
ATOM     19  O   UNL     1       7.305  -1.842  20.076  1.00  0.00    -0.265 OA
ATOM     20  O   UNL     1       6.930  -3.979  20.456  1.00  0.00    -0.265 OA
ENDBRANCH  15  18
ENDBRANCH   1  15
TORSDOF 3
ENDMDL
MODEL 2
REMARK VINA RESULT:    -5.603      1.551      2.375
REMARK INTER + INTRA:          -6.848
REMARK INTER:                  -6.498
REMARK INTRA:                  -0.351
REMARK CONF_INDEPENDENT:        0.895
REMARK UNBOUND:                 0.351
REMARK SMILES O=[N+]([O-])CCc1ccccc1
REMARK SMILES IDX 5 1 6 4 7 5 11 6 8 7 10 9 9 11 4 15 2 18 1 19 3 20
REMARK H PARENT 5 2 5 3 7 8 11 10 8 12 10 13 9 14 4 16 4 17
REMARK Flexibility Score: inf
ROOT
ATOM      1  C   UNL     1       6.180  -2.953  17.516  1.00  0.00     0.037 C 
ATOM      2  H   UNL     1       6.933  -3.612  17.063  1.00  0.00     0.038 H 
ATOM      3  H   UNL     1       6.195  -2.031  16.918  1.00  0.00     0.038 H 
ENDROOT
BRANCH   1   4
ATOM      4  C   UNL     1       4.813  -3.582  17.381  1.00  0.00    -0.041 A 
ATOM      5  C   UNL     1       4.650  -4.823  16.748  1.00  0.00    -0.059 A 
ATOM      6  C   UNL     1       3.687  -2.947  17.923  1.00  0.00    -0.059 A 
ATOM      7  C   UNL     1       3.388  -5.412  16.654  1.00  0.00    -0.062 A 
ATOM      8  H   UNL     1       5.506  -5.353  16.334  1.00  0.00     0.063 H 
ATOM      9  C   UNL     1       2.426  -3.540  17.832  1.00  0.00    -0.062 A 
ATOM     10  H   UNL     1       3.781  -1.990  18.432  1.00  0.00     0.063 H 
ATOM     11  C   UNL     1       2.276  -4.772  17.197  1.00  0.00    -0.062 A 
ATOM     12  H   UNL     1       3.273  -6.375  16.164  1.00  0.00     0.062 H 
ATOM     13  H   UNL     1       1.560  -3.045  18.264  1.00  0.00     0.062 H 
ATOM     14  H   UNL     1       1.296  -5.235  17.132  1.00  0.00     0.062 H 
ENDBRANCH   1   4
BRANCH   1  15
ATOM     15  C   UNL     1       6.554  -2.667  18.961  1.00  0.00     0.207 C 
ATOM     16  H   UNL     1       5.746  -2.182  19.518  1.00  0.00     0.111 H 
ATOM     17  H   UNL     1       7.462  -2.062  19.057  1.00  0.00     0.111 H 
BRANCH  15  18
ATOM     18  N   UNL     1       6.833  -3.979  19.624  1.00  0.00     0.020 N 
ATOM     19  O   UNL     1       6.557  -4.073  20.826  1.00  0.00    -0.265 OA
ATOM     20  O   UNL     1       7.305  -4.879  18.917  1.00  0.00    -0.265 OA
ENDBRANCH  15  18
ENDBRANCH   1  15
TORSDOF 3
ENDMDL
MODEL 3
REMARK VINA RESULT:    -5.213      1.834      2.623
REMARK INTER + INTRA:          -6.460
REMARK INTER:                  -6.108
REMARK INTRA:                  -0.352
REMARK CONF_INDEPENDENT:        0.895
REMARK UNBOUND:                 0.352
REMARK SMILES O=[N+]([O-])CCc1ccccc1
REMARK SMILES IDX 5 1 6 4 7 5 11 6 8 7 10 9 9 11 4 15 2 18 1 19 3 20
REMARK H PARENT 5 2 5 3 7 8 11 10 8 12 10 13 9 14 4 16 4 17
REMARK Flexibility Score: inf
ROOT
ATOM      1  C   UNL     1       4.670  -2.949  19.317  1.00  0.00     0.037 C 
ATOM      2  H   UNL     1       4.231  -1.946  19.227  1.00  0.00     0.038 H 
ATOM      3  H   UNL     1       4.704  -3.162  20.394  1.00  0.00     0.038 H 
ENDROOT
BRANCH   1   4
ATOM      4  C   UNL     1       3.757  -3.959  18.664  1.00  0.00    -0.041 A 
ATOM      5  C   UNL     1       3.760  -5.302  19.071  1.00  0.00    -0.059 A 
ATOM      6  C   UNL     1       2.861  -3.559  17.662  1.00  0.00    -0.059 A 
ATOM      7  C   UNL     1       2.892  -6.224  18.483  1.00  0.00    -0.062 A 
ATOM      8  H   UNL     1       4.428  -5.643  19.860  1.00  0.00     0.063 H 
ATOM      9  C   UNL     1       1.991  -4.482  17.079  1.00  0.00    -0.062 A 
ATOM     10  H   UNL     1       2.824  -2.523  17.333  1.00  0.00     0.063 H 
ATOM     11  C   UNL     1       2.006  -5.814  17.489  1.00  0.00    -0.062 A 
ATOM     12  H   UNL     1       2.900  -7.261  18.807  1.00  0.00     0.062 H 
ATOM     13  H   UNL     1       1.293  -4.160  16.310  1.00  0.00     0.062 H 
ATOM     14  H   UNL     1       1.324  -6.530  17.039  1.00  0.00     0.062 H 
ENDBRANCH   1   4
BRANCH   1  15
ATOM     15  C   UNL     1       6.068  -2.950  18.720  1.00  0.00     0.207 C 
ATOM     16  H   UNL     1       6.617  -2.027  18.932  1.00  0.00     0.111 H 
ATOM     17  H   UNL     1       6.073  -3.124  17.639  1.00  0.00     0.111 H 
BRANCH  15  18
ATOM     18  N   UNL     1       6.826  -4.078  19.346  1.00  0.00     0.020 N 
ATOM     19  O   UNL     1       7.308  -4.924  18.583  1.00  0.00    -0.265 OA
ATOM     20  O   UNL     1       6.929  -4.073  20.579  1.00  0.00    -0.265 OA
ENDBRANCH  15  18
ENDBRANCH   1  15
TORSDOF 3
ENDMDL
MODEL 4
REMARK VINA RESULT:    -4.791      2.167      2.639
REMARK INTER + INTRA:          -6.107
REMARK INTER:                  -5.686
REMARK INTRA:                  -0.421
REMARK CONF_INDEPENDENT:        0.895
REMARK UNBOUND:                 0.421
REMARK SMILES O=[N+]([O-])CCc1ccccc1
REMARK SMILES IDX 5 1 6 4 7 5 11 6 8 7 10 9 9 11 4 15 2 18 1 19 3 20
REMARK H PARENT 5 2 5 3 7 8 11 10 8 12 10 13 9 14 4 16 4 17
REMARK Flexibility Score: inf
ROOT
ATOM      1  C   UNL     1       5.299  -3.182  19.867  1.00  0.00     0.037 C 
ATOM      2  H   UNL     1       4.861  -2.209  20.127  1.00  0.00     0.038 H 
ATOM      3  H   UNL     1       5.538  -3.666  20.824  1.00  0.00     0.038 H 
ENDROOT
BRANCH   1   4
ATOM      4  C   UNL     1       4.267  -4.025  19.156  1.00  0.00    -0.041 A 
ATOM      5  C   UNL     1       3.534  -3.510  18.076  1.00  0.00    -0.059 A 
ATOM      6  C   UNL     1       4.052  -5.355  19.543  1.00  0.00    -0.059 A 
ATOM      7  C   UNL     1       2.604  -4.305  17.405  1.00  0.00    -0.062 A 
ATOM      8  H   UNL     1       3.690  -2.488  17.735  1.00  0.00     0.063 H 
ATOM      9  C   UNL     1       3.125  -6.151  18.868  1.00  0.00    -0.062 A 
ATOM     10  H   UNL     1       4.613  -5.790  20.368  1.00  0.00     0.063 H 
ATOM     11  C   UNL     1       2.400  -5.626  17.800  1.00  0.00    -0.062 A 
ATOM     12  H   UNL     1       2.043  -3.897  16.568  1.00  0.00     0.062 H 
ATOM     13  H   UNL     1       2.972  -7.184  19.170  1.00  0.00     0.062 H 
ATOM     14  H   UNL     1       1.682  -6.247  17.270  1.00  0.00     0.062 H 
ENDBRANCH   1   4
BRANCH   1  15
ATOM     15  C   UNL     1       6.555  -2.971  19.038  1.00  0.00     0.207 C 
ATOM     16  H   UNL     1       7.434  -2.751  19.653  1.00  0.00     0.111 H 
ATOM     17  H   UNL     1       6.445  -2.183  18.285  1.00  0.00     0.111 H 
BRANCH  15  18
ATOM     18  N   UNL     1       6.829  -4.243  18.300  1.00  0.00     0.020 N 
ATOM     19  O   UNL     1       7.305  -5.181  18.951  1.00  0.00    -0.265 OA
ATOM     20  O   UNL     1       6.544  -4.269  17.096  1.00  0.00    -0.265 OA
ENDBRANCH  15  18
ENDBRANCH   1  15
TORSDOF 3
ENDMDL
MODEL 5
REMARK VINA RESULT:    -4.738      2.945      4.386
REMARK INTER + INTRA:          -5.953
REMARK INTER:                  -5.633
REMARK INTRA:                  -0.320
REMARK CONF_INDEPENDENT:        0.895
REMARK UNBOUND:                 0.320
REMARK SMILES O=[N+]([O-])CCc1ccccc1
REMARK SMILES IDX 5 1 6 4 7 5 11 6 8 7 10 9 9 11 4 15 2 18 1 19 3 20
REMARK H PARENT 5 2 5 3 7 8 11 10 8 12 10 13 9 14 4 16 4 17
REMARK Flexibility Score: inf
ROOT
ATOM      1  C   UNL     1       4.146  -5.144  17.257  1.00  0.00     0.037 C 
ATOM      2  H   UNL     1       4.716  -6.079  17.165  1.00  0.00     0.038 H 
ATOM      3  H   UNL     1       3.129  -5.444  17.542  1.00  0.00     0.038 H 
ENDROOT
BRANCH   1   4
ATOM      4  C   UNL     1       4.723  -4.310  18.376  1.00  0.00    -0.041 A 
ATOM      5  C   UNL     1       6.059  -4.464  18.775  1.00  0.00    -0.059 A 
ATOM      6  C   UNL     1       3.938  -3.337  19.010  1.00  0.00    -0.059 A 
ATOM      7  C   UNL     1       6.594  -3.668  19.789  1.00  0.00    -0.062 A 
ATOM      8  H   UNL     1       6.704  -5.195  18.291  1.00  0.00     0.063 H 
ATOM      9  C   UNL     1       4.476  -2.538  20.021  1.00  0.00    -0.062 A 
ATOM     10  H   UNL     1       2.902  -3.182  18.715  1.00  0.00     0.063 H 
ATOM     11  C   UNL     1       5.803  -2.704  20.411  1.00  0.00    -0.062 A 
ATOM     12  H   UNL     1       7.631  -3.794  20.090  1.00  0.00     0.062 H 
ATOM     13  H   UNL     1       3.861  -1.780  20.500  1.00  0.00     0.062 H 
ATOM     14  H   UNL     1       6.223  -2.078  21.194  1.00  0.00     0.062 H 
ENDBRANCH   1   4
BRANCH   1  15
ATOM     15  C   UNL     1       4.142  -4.415  15.924  1.00  0.00     0.207 C 
ATOM     16  H   UNL     1       3.822  -3.372  16.014  1.00  0.00     0.111 H 
ATOM     17  H   UNL     1       3.525  -4.909  15.166  1.00  0.00     0.111 H 
BRANCH  15  18
ATOM     18  N   UNL     1       5.546  -4.412  15.406  1.00  0.00     0.020 N 
ATOM     19  O   UNL     1       6.344  -5.196  15.935  1.00  0.00    -0.265 OA
ATOM     20  O   UNL     1       5.802  -3.638  14.475  1.00  0.00    -0.265 OA
ENDBRANCH  15  18
ENDBRANCH   1  15
TORSDOF 3
ENDMDL
MODEL 6
REMARK VINA RESULT:    -4.640      3.467      4.197
REMARK INTER + INTRA:          -5.884
REMARK INTER:                  -5.535
REMARK INTRA:                  -0.349
REMARK CONF_INDEPENDENT:        0.895
REMARK UNBOUND:                 0.349
REMARK SMILES O=[N+]([O-])CCc1ccccc1
REMARK SMILES IDX 5 1 6 4 7 5 11 6 8 7 10 9 9 11 4 15 2 18 1 19 3 20
REMARK H PARENT 5 2 5 3 7 8 11 10 8 12 10 13 9 14 4 16 4 17
REMARK Flexibility Score: inf
ROOT
ATOM      1  C   UNL     1       2.864  -4.101  18.248  1.00  0.00     0.037 C 
ATOM      2  H   UNL     1       2.493  -3.124  17.910  1.00  0.00     0.038 H 
ATOM      3  H   UNL     1       2.871  -4.741  17.355  1.00  0.00     0.038 H 
ENDROOT
BRANCH   1   4
ATOM      4  C   UNL     1       4.285  -3.960  18.740  1.00  0.00    -0.041 A 
ATOM      5  C   UNL     1       4.650  -2.910  19.595  1.00  0.00    -0.059 A 
ATOM      6  C   UNL     1       5.256  -4.904  18.376  1.00  0.00    -0.059 A 
ATOM      7  C   UNL     1       5.959  -2.804  20.069  1.00  0.00    -0.062 A 
ATOM      8  H   UNL     1       3.918  -2.172  19.915  1.00  0.00     0.063 H 
ATOM      9  C   UNL     1       6.563  -4.798  18.855  1.00  0.00    -0.062 A 
ATOM     10  H   UNL     1       5.002  -5.738  17.724  1.00  0.00     0.063 H 
ATOM     11  C   UNL     1       6.915  -3.748  19.701  1.00  0.00    -0.062 A 
ATOM     12  H   UNL     1       6.232  -1.988  20.734  1.00  0.00     0.062 H 
ATOM     13  H   UNL     1       7.307  -5.540  18.574  1.00  0.00     0.062 H 
ATOM     14  H   UNL     1       7.931  -3.670  20.078  1.00  0.00     0.062 H 
ENDBRANCH   1   4
BRANCH   1  15
ATOM     15  C   UNL     1       1.930  -4.662  19.308  1.00  0.00     0.207 C 
ATOM     16  H   UNL     1       0.874  -4.516  19.059  1.00  0.00     0.111 H 
ATOM     17  H   UNL     1       2.118  -4.253  20.306  1.00  0.00     0.111 H 
BRANCH  15  18
ATOM     18  N   UNL     1       2.173  -6.136  19.390  1.00  0.00     0.020 N 
ATOM     19  O   UNL     1       2.669  -6.682  18.397  1.00  0.00    -0.265 OA
ATOM     20  O   UNL     1       1.875  -6.699  20.451  1.00  0.00    -0.265 OA
ENDBRANCH  15  18
ENDBRANCH   1  15
TORSDOF 3
ENDMDL
MODEL 7
REMARK VINA RESULT:    -4.577      4.460      4.930
REMARK INTER + INTRA:          -5.691
REMARK INTER:                  -5.472
REMARK INTRA:                  -0.219
REMARK CONF_INDEPENDENT:        0.895
REMARK UNBOUND:                 0.219
REMARK SMILES O=[N+]([O-])CCc1ccccc1
REMARK SMILES IDX 5 1 6 4 7 5 11 6 8 7 10 9 9 11 4 15 2 18 1 19 3 20
REMARK H PARENT 5 2 5 3 7 8 11 10 8 12 10 13 9 14 4 16 4 17
REMARK Flexibility Score: inf
ROOT
ATOM      1  C   UNL     1       1.758  -3.746  16.701  1.00  0.00     0.037 C 
ATOM      2  H   UNL     1       1.488  -3.682  15.637  1.00  0.00     0.038 H 
ATOM      3  H   UNL     1       1.338  -4.698  17.056  1.00  0.00     0.038 H 
ENDROOT
BRANCH   1   4
ATOM      4  C   UNL     1       3.260  -3.812  16.837  1.00  0.00    -0.041 A 
ATOM      5  C   UNL     1       3.902  -3.322  17.984  1.00  0.00    -0.059 A 
ATOM      6  C   UNL     1       4.037  -4.401  15.829  1.00  0.00    -0.059 A 
ATOM      7  C   UNL     1       5.288  -3.414  18.116  1.00  0.00    -0.062 A 
ATOM      8  H   UNL     1       3.328  -2.878  18.795  1.00  0.00     0.063 H 
ATOM      9  C   UNL     1       5.423  -4.496  15.965  1.00  0.00    -0.062 A 
ATOM     10  H   UNL     1       3.569  -4.803  14.932  1.00  0.00     0.063 H 
ATOM     11  C   UNL     1       6.049  -4.002  17.108  1.00  0.00    -0.062 A 
ATOM     12  H   UNL     1       5.776  -3.034  19.011  1.00  0.00     0.062 H 
ATOM     13  H   UNL     1       6.016  -4.963  15.182  1.00  0.00     0.062 H 
ATOM     14  H   UNL     1       7.127  -4.081  17.216  1.00  0.00     0.062 H 
ENDBRANCH   1   4
BRANCH   1  15
ATOM     15  C   UNL     1       1.151  -2.573  17.452  1.00  0.00     0.207 C 
ATOM     16  H   UNL     1       1.851  -1.740  17.570  1.00  0.00     0.111 H 
ATOM     17  H   UNL     1       0.763  -2.849  18.438  1.00  0.00     0.111 H 
BRANCH  15  18
ATOM     18  N   UNL     1      -0.010  -2.075  16.652  1.00  0.00     0.020 N 
ATOM     19  O   UNL     1      -0.365  -0.904  16.842  1.00  0.00    -0.265 OA
ATOM     20  O   UNL     1      -0.521  -2.864  15.847  1.00  0.00    -0.265 OA
ENDBRANCH  15  18
ENDBRANCH   1  15
TORSDOF 3
ENDMDL
MODEL 8
REMARK VINA RESULT:    -4.461      3.820      4.621
REMARK INTER + INTRA:          -5.609
REMARK INTER:                  -5.356
REMARK INTRA:                  -0.253
REMARK CONF_INDEPENDENT:        0.895
REMARK UNBOUND:                 0.253
REMARK SMILES O=[N+]([O-])CCc1ccccc1
REMARK SMILES IDX 5 1 6 4 7 5 11 6 8 7 10 9 9 11 4 15 2 18 1 19 3 20
REMARK H PARENT 5 2 5 3 7 8 11 10 8 12 10 13 9 14 4 16 4 17
REMARK Flexibility Score: inf
ROOT
ATOM      1  C   UNL     1       3.088  -2.936  17.468  1.00  0.00     0.037 C 
ATOM      2  H   UNL     1       3.050  -1.838  17.455  1.00  0.00     0.038 H 
ATOM      3  H   UNL     1       3.107  -3.245  16.414  1.00  0.00     0.038 H 
ENDROOT
BRANCH   1   4
ATOM      4  C   UNL     1       4.375  -3.388  18.116  1.00  0.00    -0.041 A 
ATOM      5  C   UNL     1       4.576  -3.245  19.497  1.00  0.00    -0.059 A 
ATOM      6  C   UNL     1       5.378  -3.995  17.347  1.00  0.00    -0.059 A 
ATOM      7  C   UNL     1       5.756  -3.693  20.093  1.00  0.00    -0.062 A 
ATOM      8  H   UNL     1       3.810  -2.797  20.127  1.00  0.00     0.063 H 
ATOM      9  C   UNL     1       6.556  -4.447  17.946  1.00  0.00    -0.062 A 
ATOM     10  H   UNL     1       5.249  -4.133  16.276  1.00  0.00     0.063 H 
ATOM     11  C   UNL     1       6.745  -4.295  19.319  1.00  0.00    -0.062 A 
ATOM     12  H   UNL     1       5.901  -3.580  21.165  1.00  0.00     0.062 H 
ATOM     13  H   UNL     1       7.324  -4.925  17.343  1.00  0.00     0.062 H 
ATOM     14  H   UNL     1       7.659  -4.652  19.785  1.00  0.00     0.062 H 
ENDBRANCH   1   4
BRANCH   1  15
ATOM     15  C   UNL     1       1.855  -3.480  18.170  1.00  0.00     0.207 C 
ATOM     16  H   UNL     1       1.217  -2.689  18.577  1.00  0.00     0.111 H 
ATOM     17  H   UNL     1       2.095  -4.187  18.972  1.00  0.00     0.111 H 
BRANCH  15  18
ATOM     18  N   UNL     1       1.051  -4.230  17.156  1.00  0.00     0.020 N 
ATOM     19  O   UNL     1       1.238  -5.451  17.079  1.00  0.00    -0.265 OA
ATOM     20  O   UNL     1       0.246  -3.578  16.479  1.00  0.00    -0.265 OA
ENDBRANCH  15  18
ENDBRANCH   1  15
TORSDOF 3
ENDMDL
MODEL 9
REMARK VINA RESULT:    -3.996      5.370      6.443
REMARK INTER + INTRA:          -5.107
REMARK INTER:                  -4.891
REMARK INTRA:                  -0.216
REMARK CONF_INDEPENDENT:        0.895
REMARK UNBOUND:                 0.216
REMARK SMILES O=[N+]([O-])CCc1ccccc1
REMARK SMILES IDX 5 1 6 4 7 5 11 6 8 7 10 9 9 11 4 15 2 18 1 19 3 20
REMARK H PARENT 5 2 5 3 7 8 11 10 8 12 10 13 9 14 4 16 4 17
REMARK Flexibility Score: inf
ROOT
ATOM      1  C   UNL     1       0.649  -2.687  17.540  1.00  0.00     0.037 C 
ATOM      2  H   UNL     1       1.613  -2.230  17.279  1.00  0.00     0.038 H 
ATOM      3  H   UNL     1       0.427  -2.347  18.561  1.00  0.00     0.038 H 
ENDROOT
BRANCH   1   4
ATOM      4  C   UNL     1      -0.426  -2.156  16.621  1.00  0.00    -0.041 A 
ATOM      5  C   UNL     1      -0.760  -0.794  16.614  1.00  0.00    -0.059 A 
ATOM      6  C   UNL     1      -1.082  -3.017  15.730  1.00  0.00    -0.059 A 
ATOM      7  C   UNL     1      -1.734  -0.306  15.741  1.00  0.00    -0.062 A 
ATOM      8  H   UNL     1      -0.256  -0.094  17.277  1.00  0.00     0.063 H 
ATOM      9  C   UNL     1      -2.052  -2.526  14.854  1.00  0.00    -0.062 A 
ATOM     10  H   UNL     1      -0.837  -4.077  15.700  1.00  0.00     0.063 H 
ATOM     11  C   UNL     1      -2.379  -1.172  14.859  1.00  0.00    -0.062 A 
ATOM     12  H   UNL     1      -1.984   0.752  15.741  1.00  0.00     0.062 H 
ATOM     13  H   UNL     1      -2.549  -3.200  14.160  1.00  0.00     0.062 H 
ATOM     14  H   UNL     1      -3.129  -0.789  14.173  1.00  0.00     0.062 H 
ENDBRANCH   1   4
BRANCH   1  15
ATOM     15  C   UNL     1       0.771  -4.200  17.487  1.00  0.00     0.207 C 
ATOM     16  H   UNL     1      -0.020  -4.667  16.892  1.00  0.00     0.111 H 
ATOM     17  H   UNL     1       0.786  -4.665  18.479  1.00  0.00     0.111 H 
BRANCH  15  18
ATOM     18  N   UNL     1       2.077  -4.527  16.834  1.00  0.00     0.020 N 
ATOM     19  O   UNL     1       2.592  -5.615  17.118  1.00  0.00    -0.265 OA
ATOM     20  O   UNL     1       2.537  -3.692  16.045  1.00  0.00    -0.265 OA
ENDBRANCH  15  18
ENDBRANCH   1  15
TORSDOF 3
ENDMDL
