MODEL 1
REMARK VINA RESULT:    -4.142      0.000      0.000
REMARK INTER + INTRA:          -4.871
REMARK INTER:                  -4.739
REMARK INTRA:                  -0.132
REMARK CONF_INDEPENDENT:        0.597
REMARK UNBOUND:                 0.132
REMARK SMILES CC1=C(O)C(=O)CO1
REMARK SMILES IDX 8 1 7 2 5 3 3 4 2 5 6 6 1 9 4 13
REMARK H PARENT 7 7 7 8 1 10 1 11 1 12 4 14
REMARK Flexibility Score: inf
ROOT
ATOM      1  O   UNL     1      -1.879  -3.583   1.394  1.00  0.00    -0.486 OA
ATOM      2  C   UNL     1      -3.324  -3.593   1.447  1.00  0.00     0.154 C 
ATOM      3  C   UNL     1      -3.735  -3.656   0.008  1.00  0.00     0.237 C 
ATOM      4  C   UNL     1      -2.545  -3.637  -0.834  1.00  0.00     0.200 C 
ATOM      5  C   UNL     1      -1.541  -3.593   0.039  1.00  0.00     0.139 C 
ATOM      6  O   UNL     1      -4.869  -3.708  -0.444  1.00  0.00    -0.287 OA
ATOM      7  H   UNL     1      -3.670  -2.666   1.910  1.00  0.00     0.080 H 
ATOM      8  H   UNL     1      -3.659  -4.477   1.993  1.00  0.00     0.080 H 
ENDROOT
BRANCH   5   9
ATOM      9  C   UNL     1      -0.088  -3.545  -0.280  1.00  0.00    -0.003 C 
ATOM     10  H   UNL     1       0.093  -3.266  -1.324  1.00  0.00     0.031 H 
ATOM     11  H   UNL     1       0.372  -4.522  -0.104  1.00  0.00     0.031 H 
ATOM     12  H   UNL     1       0.414  -2.808   0.355  1.00  0.00     0.031 H 
ENDBRANCH   5   9
BRANCH   4  13
ATOM     13  O   UNL     1      -2.539  -3.656  -2.192  1.00  0.00    -0.502 OA
ATOM     14  H   UNL     1      -1.962  -4.405  -2.440  1.00  0.00     0.293 HD
ENDBRANCH   4  13
TORSDOF 2
ENDMDL
MODEL 2
REMARK VINA RESULT:    -3.739      0.568      2.588
REMARK INTER + INTRA:          -4.464
REMARK INTER:                  -4.336
REMARK INTRA:                  -0.128
REMARK CONF_INDEPENDENT:        0.597
REMARK UNBOUND:                 0.128
REMARK SMILES CC1=C(O)C(=O)CO1
REMARK SMILES IDX 8 1 7 2 5 3 3 4 2 5 6 6 1 9 4 13
REMARK H PARENT 7 7 7 8 1 10 1 11 1 12 4 14
REMARK Flexibility Score: inf
ROOT
ATOM      1  O   UNL     1      -1.532  -3.299   1.366  1.00  0.00    -0.486 OA
ATOM      2  C   UNL     1      -1.110  -3.442  -0.009  1.00  0.00     0.154 C 
ATOM      3  C   UNL     1      -2.396  -3.544  -0.771  1.00  0.00     0.237 C 
ATOM      4  C   UNL     1      -3.514  -3.504   0.165  1.00  0.00     0.200 C 
ATOM      5  C   UNL     1      -2.927  -3.365   1.352  1.00  0.00     0.139 C 
ATOM      6  O   UNL     1      -2.543  -3.654  -1.978  1.00  0.00    -0.287 OA
ATOM      7  H   UNL     1      -0.526  -4.359  -0.109  1.00  0.00     0.080 H 
ATOM      8  H   UNL     1      -0.544  -2.557  -0.307  1.00  0.00     0.080 H 
ENDROOT
BRANCH   5   9
ATOM      9  C   UNL     1      -3.607  -3.281   2.674  1.00  0.00    -0.003 C 
ATOM     10  H   UNL     1      -3.946  -2.264   2.896  1.00  0.00     0.031 H 
ATOM     11  H   UNL     1      -2.925  -3.594   3.471  1.00  0.00     0.031 H 
ATOM     12  H   UNL     1      -4.482  -3.938   2.691  1.00  0.00     0.031 H 
ENDBRANCH   5   9
BRANCH   4  13
ATOM     13  O   UNL     1      -4.826  -3.597  -0.170  1.00  0.00    -0.502 OA
ATOM     14  H   UNL     1      -5.281  -2.917   0.366  1.00  0.00     0.293 HD
ENDBRANCH   4  13
TORSDOF 2
ENDMDL
MODEL 3
REMARK VINA RESULT:    -3.475      1.467      2.197
REMARK INTER + INTRA:          -4.570
REMARK INTER:                  -4.072
REMARK INTRA:                  -0.499
REMARK CONF_INDEPENDENT:        0.597
REMARK UNBOUND:                 0.499
REMARK SMILES CC1=C(O)C(=O)CO1
REMARK SMILES IDX 8 1 7 2 5 3 3 4 2 5 6 6 1 9 4 13
REMARK H PARENT 7 7 7 8 1 10 1 11 1 12 4 14
REMARK Flexibility Score: inf
ROOT
ATOM      1  O   UNL     1      -1.242  -3.294   1.291  1.00  0.00    -0.486 OA
ATOM      2  C   UNL     1      -1.921  -3.261   2.567  1.00  0.00     0.154 C 
ATOM      3  C   UNL     1      -3.374  -3.286   2.203  1.00  0.00     0.237 C 
ATOM      4  C   UNL     1      -3.505  -3.287   0.751  1.00  0.00     0.200 C 
ATOM      5  C   UNL     1      -2.245  -3.290   0.319  1.00  0.00     0.139 C 
ATOM      6  O   UNL     1      -4.334  -3.294   2.958  1.00  0.00    -0.287 OA
ATOM      7  H   UNL     1      -1.665  -2.333   3.083  1.00  0.00     0.080 H 
ATOM      8  H   UNL     1      -1.644  -4.145   3.146  1.00  0.00     0.080 H 
ENDROOT
BRANCH   5   9
ATOM      9  C   UNL     1      -1.792  -3.280  -1.099  1.00  0.00    -0.003 C 
ATOM     10  H   UNL     1      -1.668  -2.261  -1.481  1.00  0.00     0.031 H 
ATOM     11  H   UNL     1      -2.520  -3.795  -1.733  1.00  0.00     0.031 H 
ATOM     12  H   UNL     1      -0.830  -3.792  -1.191  1.00  0.00     0.031 H 
ENDBRANCH   5   9
BRANCH   4  13
ATOM     13  O   UNL     1      -4.677  -3.281   0.065  1.00  0.00    -0.502 OA
ATOM     14  H   UNL     1      -5.366  -3.070   0.727  1.00  0.00     0.293 HD
ENDBRANCH   4  13
TORSDOF 2
ENDMDL
MODEL 4
REMARK VINA RESULT:    -3.226      9.196     10.296
REMARK INTER + INTRA:          -4.238
REMARK INTER:                  -3.822
REMARK INTRA:                  -0.416
REMARK CONF_INDEPENDENT:        0.597
REMARK UNBOUND:                 0.416
REMARK SMILES CC1=C(O)C(=O)CO1
REMARK SMILES IDX 8 1 7 2 5 3 3 4 2 5 6 6 1 9 4 13
REMARK H PARENT 7 7 7 8 1 10 1 11 1 12 4 14
REMARK Flexibility Score: inf
ROOT
ATOM      1  O   UNL     1       3.489   1.971  -6.066  1.00  0.00    -0.486 OA
ATOM      2  C   UNL     1       2.374   1.093  -5.792  1.00  0.00     0.154 C 
ATOM      3  C   UNL     1       1.270   1.637  -6.645  1.00  0.00     0.237 C 
ATOM      4  C   UNL     1       1.745   2.823  -7.348  1.00  0.00     0.200 C 
ATOM      5  C   UNL     1       3.013   2.935  -6.957  1.00  0.00     0.139 C 
ATOM      6  O   UNL     1       0.134   1.204  -6.764  1.00  0.00    -0.287 OA
ATOM      7  H   UNL     1       2.117   1.162  -4.733  1.00  0.00     0.080 H 
ATOM      8  H   UNL     1       2.635   0.074  -6.087  1.00  0.00     0.080 H 
ENDROOT
BRANCH   5   9
ATOM      9  C   UNL     1       3.979   3.993  -7.364  1.00  0.00    -0.003 C 
ATOM     10  H   UNL     1       4.163   4.710  -6.558  1.00  0.00     0.031 H 
ATOM     11  H   UNL     1       3.595   4.543  -8.229  1.00  0.00     0.031 H 
ATOM     12  H   UNL     1       4.938   3.543  -7.639  1.00  0.00     0.031 H 
ENDBRANCH   5   9
BRANCH   4  13
ATOM     13  O   UNL     1       1.007   3.590  -8.190  1.00  0.00    -0.502 OA
ATOM     14  H   UNL     1       0.082   3.494  -7.887  1.00  0.00     0.293 HD
ENDBRANCH   4  13
TORSDOF 2
ENDMDL
MODEL 5
REMARK VINA RESULT:    -3.066      1.344      2.934
REMARK INTER + INTRA:          -3.964
REMARK INTER:                  -3.662
REMARK INTRA:                  -0.302
REMARK CONF_INDEPENDENT:        0.597
REMARK UNBOUND:                 0.302
REMARK SMILES CC1=C(O)C(=O)CO1
REMARK SMILES IDX 8 1 7 2 5 3 3 4 2 5 6 6 1 9 4 13
REMARK H PARENT 7 7 7 8 1 10 1 11 1 12 4 14
REMARK Flexibility Score: inf
ROOT
ATOM      1  O   UNL     1      -1.620  -3.189   1.394  1.00  0.00    -0.486 OA
ATOM      2  C   UNL     1      -0.254  -3.142   0.924  1.00  0.00     0.154 C 
ATOM      3  C   UNL     1      -0.386  -3.173  -0.568  1.00  0.00     0.237 C 
ATOM      4  C   UNL     1      -1.795  -3.281  -0.924  1.00  0.00     0.200 C 
ATOM      5  C   UNL     1      -2.419  -3.285   0.252  1.00  0.00     0.139 C 
ATOM      6  O   UNL     1       0.509  -3.128  -1.398  1.00  0.00    -0.287 OA
ATOM      7  H   UNL     1       0.278  -4.025   1.286  1.00  0.00     0.080 H 
ATOM      8  H   UNL     1       0.212  -2.213   1.261  1.00  0.00     0.080 H 
ENDROOT
BRANCH   5   9
ATOM      9  C   UNL     1      -3.887  -3.390   0.479  1.00  0.00    -0.003 C 
ATOM     10  H   UNL     1      -4.169  -4.368   0.883  1.00  0.00     0.031 H 
ATOM     11  H   UNL     1      -4.427  -3.241  -0.461  1.00  0.00     0.031 H 
ATOM     12  H   UNL     1      -4.215  -2.626   1.191  1.00  0.00     0.031 H 
ENDBRANCH   5   9
BRANCH   4  13
ATOM     13  O   UNL     1      -2.285  -3.360  -2.188  1.00  0.00    -0.502 OA
ATOM     14  H   UNL     1      -1.739  -4.034  -2.638  1.00  0.00     0.293 HD
ENDBRANCH   4  13
TORSDOF 2
ENDMDL
MODEL 6
REMARK VINA RESULT:    -3.066     10.013     10.914
REMARK INTER + INTRA:          -3.829
REMARK INTER:                  -3.662
REMARK INTRA:                  -0.166
REMARK CONF_INDEPENDENT:        0.597
REMARK UNBOUND:                 0.166
REMARK SMILES CC1=C(O)C(=O)CO1
REMARK SMILES IDX 8 1 7 2 5 3 3 4 2 5 6 6 1 9 4 13
REMARK H PARENT 7 7 7 8 1 10 1 11 1 12 4 14
REMARK Flexibility Score: inf
ROOT
ATOM      1  O   UNL     1       3.510   4.585   1.142  1.00  0.00    -0.486 OA
ATOM      2  C   UNL     1       4.120   5.639   0.363  1.00  0.00     0.154 C 
ATOM      3  C   UNL     1       2.969   6.523  -0.010  1.00  0.00     0.237 C 
ATOM      4  C   UNL     1       1.734   5.950   0.512  1.00  0.00     0.200 C 
ATOM      5  C   UNL     1       2.139   4.853   1.149  1.00  0.00     0.139 C 
ATOM      6  O   UNL     1       3.001   7.561  -0.653  1.00  0.00    -0.287 OA
ATOM      7  H   UNL     1       4.580   5.205  -0.527  1.00  0.00     0.080 H 
ATOM      8  H   UNL     1       4.844   6.173   0.982  1.00  0.00     0.080 H 
ENDROOT
BRANCH   5   9
ATOM      9  C   UNL     1       1.278   3.871   1.864  1.00  0.00    -0.003 C 
ATOM     10  H   UNL     1       0.832   3.143   1.178  1.00  0.00     0.031 H 
ATOM     11  H   UNL     1       0.467   4.388   2.386  1.00  0.00     0.031 H 
ATOM     12  H   UNL     1       1.867   3.319   2.602  1.00  0.00     0.031 H 
ENDBRANCH   5   9
BRANCH   4  13
ATOM     13  O   UNL     1       0.491   6.469   0.344  1.00  0.00    -0.502 OA
ATOM     14  H   UNL     1       0.348   7.056   1.113  1.00  0.00     0.293 HD
ENDBRANCH   4  13
TORSDOF 2
ENDMDL
MODEL 7
REMARK VINA RESULT:    -2.965      9.466     10.329
REMARK INTER + INTRA:          -3.708
REMARK INTER:                  -3.561
REMARK INTRA:                  -0.147
REMARK CONF_INDEPENDENT:        0.597
REMARK UNBOUND:                 0.147
REMARK SMILES CC1=C(O)C(=O)CO1
REMARK SMILES IDX 8 1 7 2 5 3 3 4 2 5 6 6 1 9 4 13
REMARK H PARENT 7 7 7 8 1 10 1 11 1 12 4 14
REMARK Flexibility Score: inf
ROOT
ATOM      1  O   UNL     1       3.966   5.012   0.742  1.00  0.00    -0.486 OA
ATOM      2  C   UNL     1       3.416   3.944   1.546  1.00  0.00     0.154 C 
ATOM      3  C   UNL     1       1.952   4.254   1.604  1.00  0.00     0.237 C 
ATOM      4  C   UNL     1       1.694   5.495   0.884  1.00  0.00     0.200 C 
ATOM      5  C   UNL     1       2.894   5.852   0.431  1.00  0.00     0.139 C 
ATOM      6  O   UNL     1       1.073   3.611   2.158  1.00  0.00    -0.287 OA
ATOM      7  H   UNL     1       3.862   3.983   2.543  1.00  0.00     0.080 H 
ATOM      8  H   UNL     1       3.599   2.988   1.050  1.00  0.00     0.080 H 
ENDROOT
BRANCH   5   9
ATOM      9  C   UNL     1       3.216   7.066  -0.369  1.00  0.00    -0.003 C 
ATOM     10  H   UNL     1       4.227   7.023  -0.789  1.00  0.00     0.031 H 
ATOM     11  H   UNL     1       3.145   7.962   0.256  1.00  0.00     0.031 H 
ATOM     12  H   UNL     1       2.512   7.169  -1.200  1.00  0.00     0.031 H 
ENDBRANCH   5   9
BRANCH   4  13
ATOM     13  O   UNL     1       0.482   6.092   0.751  1.00  0.00    -0.502 OA
ATOM     14  H   UNL     1       0.513   6.877   1.334  1.00  0.00     0.293 HD
ENDBRANCH   4  13
TORSDOF 2
ENDMDL
MODEL 8
REMARK VINA RESULT:    -2.834      7.481      8.853
REMARK INTER + INTRA:          -3.916
REMARK INTER:                  -3.430
REMARK INTRA:                  -0.485
REMARK CONF_INDEPENDENT:        0.597
REMARK UNBOUND:                 0.485
REMARK SMILES CC1=C(O)C(=O)CO1
REMARK SMILES IDX 8 1 7 2 5 3 3 4 2 5 6 6 1 9 4 13
REMARK H PARENT 7 7 7 8 1 10 1 11 1 12 4 14
REMARK Flexibility Score: inf
ROOT
ATOM      1  O   UNL     1       3.653  -3.492  -2.953  1.00  0.00    -0.486 OA
ATOM      2  C   UNL     1       4.073  -2.459  -3.872  1.00  0.00     0.154 C 
ATOM      3  C   UNL     1       5.362  -2.977  -4.431  1.00  0.00     0.237 C 
ATOM      4  C   UNL     1       5.679  -4.254  -3.803  1.00  0.00     0.200 C 
ATOM      5  C   UNL     1       4.655  -4.465  -2.980  1.00  0.00     0.139 C 
ATOM      6  O   UNL     1       6.077  -2.452  -5.270  1.00  0.00    -0.287 OA
ATOM      7  H   UNL     1       4.235  -1.532  -3.316  1.00  0.00     0.080 H 
ATOM      8  H   UNL     1       3.320  -2.344  -4.654  1.00  0.00     0.080 H 
ENDROOT
BRANCH   5   9
ATOM      9  C   UNL     1       4.469  -5.631  -2.072  1.00  0.00    -0.003 C 
ATOM     10  H   UNL     1       5.142  -5.588  -1.210  1.00  0.00     0.031 H 
ATOM     11  H   UNL     1       4.663  -6.564  -2.610  1.00  0.00     0.031 H 
ATOM     12  H   UNL     1       3.442  -5.656  -1.695  1.00  0.00     0.031 H 
ENDBRANCH   5   9
BRANCH   4  13
ATOM     13  O   UNL     1       6.787  -5.000  -4.049  1.00  0.00    -0.502 OA
ATOM     14  H   UNL     1       7.402  -4.406  -4.523  1.00  0.00     0.293 HD
ENDBRANCH   4  13
TORSDOF 2
ENDMDL
MODEL 9
REMARK VINA RESULT:    -2.793      8.867     10.142
REMARK INTER + INTRA:          -3.908
REMARK INTER:                  -3.389
REMARK INTRA:                  -0.519
REMARK CONF_INDEPENDENT:        0.597
REMARK UNBOUND:                 0.519
REMARK SMILES CC1=C(O)C(=O)CO1
REMARK SMILES IDX 8 1 7 2 5 3 3 4 2 5 6 6 1 9 4 13
REMARK H PARENT 7 7 7 8 1 10 1 11 1 12 4 14
REMARK Flexibility Score: inf
ROOT
ATOM      1  O   UNL     1       3.625   2.332  -6.079  1.00  0.00    -0.486 OA
ATOM      2  C   UNL     1       3.200   3.365  -6.998  1.00  0.00     0.154 C 
ATOM      3  C   UNL     1       1.866   2.888  -7.483  1.00  0.00     0.237 C 
ATOM      4  C   UNL     1       1.571   1.593  -6.882  1.00  0.00     0.200 C 
ATOM      5  C   UNL     1       2.625   1.358  -6.103  1.00  0.00     0.139 C 
ATOM      6  O   UNL     1       1.110   3.448  -8.262  1.00  0.00    -0.287 OA
ATOM      7  H   UNL     1       3.915   3.425  -7.822  1.00  0.00     0.080 H 
ATOM      8  H   UNL     1       3.111   4.311  -6.460  1.00  0.00     0.080 H 
ENDROOT
BRANCH   5   9
ATOM      9  C   UNL     1       2.853   0.154  -5.257  1.00  0.00    -0.003 C 
ATOM     10  H   UNL     1       2.284  -0.710  -5.613  1.00  0.00     0.031 H 
ATOM     11  H   UNL     1       2.556   0.356  -4.223  1.00  0.00     0.031 H 
ATOM     12  H   UNL     1       3.914  -0.117  -5.265  1.00  0.00     0.031 H 
ENDBRANCH   5   9
BRANCH   4  13
ATOM     13  O   UNL     1       0.458   0.851  -7.114  1.00  0.00    -0.502 OA
ATOM     14  H   UNL     1      -0.106   1.401  -7.694  1.00  0.00     0.293 HD
ENDBRANCH   4  13
TORSDOF 2
ENDMDL
