REMARK SMILES CC1=C(O)C(=O)CO1
REMARK SMILES IDX 8 1 7 2 5 3 3 4 2 5 6 6 1 9 4 13
REMARK H PARENT 7 7 7 8 1 10 1 11 1 12 4 14
REMARK Flexibility Score: inf
ROOT
ATOM      1  O   UNL     1      -0.272   1.128  -0.179  1.00  0.00    -0.486 OA
ATOM      2  C   UNL     1      -1.187   0.009  -0.157  1.00  0.00     0.154 C 
ATOM      3  C   UNL     1      -0.290  -1.187  -0.064  1.00  0.00     0.237 C 
ATOM      4  C   UNL     1       1.100  -0.748  -0.079  1.00  0.00     0.200 C 
ATOM      5  C   UNL     1       1.012   0.579  -0.147  1.00  0.00     0.139 C 
ATOM      6  O   UNL     1      -0.616  -2.362   0.006  1.00  0.00    -0.287 OA
ATOM      7  H   UNL     1      -1.757  -0.004  -1.089  1.00  0.00     0.080 H 
ATOM      8  H   UNL     1      -1.833   0.088   0.720  1.00  0.00     0.080 H 
ENDROOT
BRANCH   5   9
ATOM      9  C   UNL     1       2.145   1.543  -0.203  1.00  0.00    -0.003 C 
ATOM     10  H   UNL     1       3.112   1.034  -0.268  1.00  0.00     0.031 H 
ATOM     11  H   UNL     1       2.151   2.173   0.692  1.00  0.00     0.031 H 
ATOM     12  H   UNL     1       2.047   2.190  -1.080  1.00  0.00     0.031 H 
ENDBRANCH   5   9
BRANCH   4  13
ATOM     13  O   UNL     1       2.185  -1.563  -0.035  1.00  0.00    -0.502 OA
ATOM     14  H   UNL     1       1.827  -2.472   0.011  1.00  0.00     0.293 HD
ENDBRANCH   4  13
TORSDOF 2
