MODEL 1
REMARK VINA RESULT:    -5.328      0.000      0.000
REMARK INTER + INTRA:          -6.480
REMARK INTER:                  -6.223
REMARK INTRA:                  -0.257
REMARK CONF_INDEPENDENT:        0.895
REMARK UNBOUND:                 0.257
REMARK SMILES O=[N+]([O-])CCc1ccccc1
REMARK SMILES IDX 5 1 6 4 7 5 11 6 8 7 10 9 9 11 4 15 2 18 1 19 3 20
REMARK H PARENT 5 2 5 3 7 8 11 10 8 12 10 13 9 14 4 16 4 17
REMARK Flexibility Score: inf
ROOT
ATOM      1  C   UNL     1      -1.799  -3.582   0.734  1.00  0.00     0.037 C 
ATOM      2  H   UNL     1      -1.858  -2.667   0.128  1.00  0.00     0.038 H 
ATOM      3  H   UNL     1      -0.769  -3.949   0.617  1.00  0.00     0.038 H 
ENDROOT
BRANCH   1   4
ATOM      4  C   UNL     1      -2.015  -3.238   2.188  1.00  0.00    -0.041 A 
ATOM      5  C   UNL     1      -0.949  -3.258   3.100  1.00  0.00    -0.059 A 
ATOM      6  C   UNL     1      -3.285  -2.854   2.642  1.00  0.00    -0.059 A 
ATOM      7  C   UNL     1      -1.151  -2.910   4.436  1.00  0.00    -0.062 A 
ATOM      8  H   UNL     1       0.054  -3.531   2.777  1.00  0.00     0.063 H 
ATOM      9  C   UNL     1      -3.484  -2.501   3.979  1.00  0.00    -0.062 A 
ATOM     10  H   UNL     1      -4.130  -2.815   1.958  1.00  0.00     0.063 H 
ATOM     11  C   UNL     1      -2.418  -2.530   4.876  1.00  0.00    -0.062 A 
ATOM     12  H   UNL     1      -0.318  -2.926   5.134  1.00  0.00     0.062 H 
ATOM     13  H   UNL     1      -4.470  -2.196   4.319  1.00  0.00     0.062 H 
ATOM     14  H   UNL     1      -2.572  -2.250   5.914  1.00  0.00     0.062 H 
ENDBRANCH   1   4
BRANCH   1  15
ATOM     15  C   UNL     1      -2.799  -4.602   0.217  1.00  0.00     0.207 C 
ATOM     16  H   UNL     1      -3.640  -4.752   0.901  1.00  0.00     0.111 H 
ATOM     17  H   UNL     1      -2.346  -5.575  -0.002  1.00  0.00     0.111 H 
BRANCH  15  18
ATOM     18  N   UNL     1      -3.354  -4.081  -1.071  1.00  0.00     0.020 N 
ATOM     19  O   UNL     1      -2.543  -3.641  -1.897  1.00  0.00    -0.265 OA
ATOM     20  O   UNL     1      -4.580  -4.142  -1.223  1.00  0.00    -0.265 OA
ENDBRANCH  15  18
ENDBRANCH   1  15
TORSDOF 3
ENDMDL
MODEL 2
REMARK VINA RESULT:    -5.275      0.225      1.743
REMARK INTER + INTRA:          -6.426
REMARK INTER:                  -6.170
REMARK INTRA:                  -0.256
REMARK CONF_INDEPENDENT:        0.895
REMARK UNBOUND:                 0.256
REMARK SMILES O=[N+]([O-])CCc1ccccc1
REMARK SMILES IDX 5 1 6 4 7 5 11 6 8 7 10 9 9 11 4 15 2 18 1 19 3 20
REMARK H PARENT 5 2 5 3 7 8 11 10 8 12 10 13 9 14 4 16 4 17
REMARK Flexibility Score: inf
ROOT
ATOM      1  C   UNL     1      -1.691  -3.688   0.861  1.00  0.00     0.037 C 
ATOM      2  H   UNL     1      -1.581  -2.799   0.225  1.00  0.00     0.038 H 
ATOM      3  H   UNL     1      -0.734  -4.224   0.791  1.00  0.00     0.038 H 
ENDROOT
BRANCH   1   4
ATOM      4  C   UNL     1      -1.889  -3.261   2.296  1.00  0.00    -0.041 A 
ATOM      5  C   UNL     1      -3.156  -2.890   2.770  1.00  0.00    -0.059 A 
ATOM      6  C   UNL     1      -0.808  -3.264   3.190  1.00  0.00    -0.059 A 
ATOM      7  C   UNL     1      -3.336  -2.525   4.105  1.00  0.00    -0.062 A 
ATOM      8  H   UNL     1      -4.021  -2.896   2.109  1.00  0.00     0.063 H 
ATOM      9  C   UNL     1      -0.991  -2.903   4.526  1.00  0.00    -0.062 A 
ATOM     10  H   UNL     1       0.185  -3.559   2.858  1.00  0.00     0.063 H 
ATOM     11  C   UNL     1      -2.255  -2.533   4.984  1.00  0.00    -0.062 A 
ATOM     12  H   UNL     1      -4.323  -2.243   4.463  1.00  0.00     0.062 H 
ATOM     13  H   UNL     1      -0.149  -2.918   5.214  1.00  0.00     0.062 H 
ATOM     14  H   UNL     1      -2.398  -2.258   6.025  1.00  0.00     0.062 H 
ENDBRANCH   1   4
BRANCH   1  15
ATOM     15  C   UNL     1      -2.832  -4.548   0.343  1.00  0.00     0.207 C 
ATOM     16  H   UNL     1      -3.664  -4.616   1.051  1.00  0.00     0.111 H 
ATOM     17  H   UNL     1      -2.517  -5.561   0.071  1.00  0.00     0.111 H 
BRANCH  15  18
ATOM     18  N   UNL     1      -3.353  -3.905  -0.903  1.00  0.00     0.020 N 
ATOM     19  O   UNL     1      -4.562  -4.032  -1.140  1.00  0.00    -0.265 OA
ATOM     20  O   UNL     1      -2.542  -3.281  -1.598  1.00  0.00    -0.265 OA
ENDBRANCH  15  18
ENDBRANCH   1  15
TORSDOF 3
ENDMDL
MODEL 3
REMARK VINA RESULT:    -4.779     10.758     11.811
REMARK INTER + INTRA:          -5.921
REMARK INTER:                  -5.674
REMARK INTRA:                  -0.246
REMARK CONF_INDEPENDENT:        0.895
REMARK UNBOUND:                 0.246
REMARK SMILES O=[N+]([O-])CCc1ccccc1
REMARK SMILES IDX 5 1 6 4 7 5 11 6 8 7 10 9 9 11 4 15 2 18 1 19 3 20
REMARK H PARENT 5 2 5 3 7 8 11 10 8 12 10 13 9 14 4 16 4 17
REMARK Flexibility Score: inf
ROOT
ATOM      1  C   UNL     1       4.133   1.092  -5.505  1.00  0.00     0.037 C 
ATOM      2  H   UNL     1       4.485   1.850  -4.793  1.00  0.00     0.038 H 
ATOM      3  H   UNL     1       3.764   0.258  -4.892  1.00  0.00     0.038 H 
ENDROOT
BRANCH   1   4
ATOM      4  C   UNL     1       2.972   1.645  -6.298  1.00  0.00    -0.041 A 
ATOM      5  C   UNL     1       1.757   0.950  -6.377  1.00  0.00    -0.059 A 
ATOM      6  C   UNL     1       3.082   2.888  -6.938  1.00  0.00    -0.059 A 
ATOM      7  C   UNL     1       0.679   1.482  -7.086  1.00  0.00    -0.062 A 
ATOM      8  H   UNL     1       1.630  -0.007  -5.875  1.00  0.00     0.063 H 
ATOM      9  C   UNL     1       2.001   3.421  -7.643  1.00  0.00    -0.062 A 
ATOM     10  H   UNL     1       4.006   3.460  -6.884  1.00  0.00     0.063 H 
ATOM     11  C   UNL     1       0.800   2.718  -7.718  1.00  0.00    -0.062 A 
ATOM     12  H   UNL     1      -0.260   0.937  -7.140  1.00  0.00     0.062 H 
ATOM     13  H   UNL     1       2.093   4.390  -8.128  1.00  0.00     0.062 H 
ATOM     14  H   UNL     1      -0.042   3.136  -8.262  1.00  0.00     0.062 H 
ENDBRANCH   1   4
BRANCH   1  15
ATOM     15  C   UNL     1       5.286   0.646  -6.388  1.00  0.00     0.207 C 
ATOM     16  H   UNL     1       6.121   1.353  -6.381  1.00  0.00     0.111 H 
ATOM     17  H   UNL     1       4.987   0.464  -7.426  1.00  0.00     0.111 H 
BRANCH  15  18
ATOM     18  N   UNL     1       5.793  -0.654  -5.848  1.00  0.00     0.020 N 
ATOM     19  O   UNL     1       7.009  -0.741  -5.636  1.00  0.00    -0.265 OA
ATOM     20  O   UNL     1       4.957  -1.542  -5.637  1.00  0.00    -0.265 OA
ENDBRANCH  15  18
ENDBRANCH   1  15
TORSDOF 3
ENDMDL
MODEL 4
REMARK VINA RESULT:    -4.761      2.958      4.774
REMARK INTER + INTRA:          -5.945
REMARK INTER:                  -5.656
REMARK INTRA:                  -0.290
REMARK CONF_INDEPENDENT:        0.895
REMARK UNBOUND:                 0.290
REMARK SMILES O=[N+]([O-])CCc1ccccc1
REMARK SMILES IDX 5 1 6 4 7 5 11 6 8 7 10 9 9 11 4 15 2 18 1 19 3 20
REMARK H PARENT 5 2 5 3 7 8 11 10 8 12 10 13 9 14 4 16 4 17
REMARK Flexibility Score: inf
ROOT
ATOM      1  C   UNL     1      -1.339  -2.907  -0.285  1.00  0.00     0.037 C 
ATOM      2  H   UNL     1      -1.139  -2.350   0.640  1.00  0.00     0.038 H 
ATOM      3  H   UNL     1      -1.668  -2.157  -1.018  1.00  0.00     0.038 H 
ENDROOT
BRANCH   1   4
ATOM      4  C   UNL     1      -0.056  -3.527  -0.788  1.00  0.00    -0.041 A 
ATOM      5  C   UNL     1       0.906  -4.017   0.107  1.00  0.00    -0.059 A 
ATOM      6  C   UNL     1       0.174  -3.655  -2.165  1.00  0.00    -0.059 A 
ATOM      7  C   UNL     1       2.076  -4.615  -0.366  1.00  0.00    -0.062 A 
ATOM      8  H   UNL     1       0.751  -3.952   1.182  1.00  0.00     0.063 H 
ATOM      9  C   UNL     1       1.342  -4.259  -2.636  1.00  0.00    -0.062 A 
ATOM     10  H   UNL     1      -0.558  -3.298  -2.886  1.00  0.00     0.063 H 
ATOM     11  C   UNL     1       2.293  -4.738  -1.737  1.00  0.00    -0.062 A 
ATOM     12  H   UNL     1       2.814  -4.995   0.335  1.00  0.00     0.062 H 
ATOM     13  H   UNL     1       1.508  -4.362  -3.706  1.00  0.00     0.062 H 
ATOM     14  H   UNL     1       3.199  -5.212  -2.104  1.00  0.00     0.062 H 
ENDBRANCH   1   4
BRANCH   1  15
ATOM     15  C   UNL     1      -2.429  -3.936  -0.036  1.00  0.00     0.207 C 
ATOM     16  H   UNL     1      -3.086  -3.662   0.795  1.00  0.00     0.111 H 
ATOM     17  H   UNL     1      -2.036  -4.943   0.142  1.00  0.00     0.111 H 
BRANCH  15  18
ATOM     18  N   UNL     1      -3.271  -4.011  -1.270  1.00  0.00     0.020 N 
ATOM     19  O   UNL     1      -4.436  -4.406  -1.134  1.00  0.00    -0.265 OA
ATOM     20  O   UNL     1      -2.747  -3.656  -2.333  1.00  0.00    -0.265 OA
ENDBRANCH  15  18
ENDBRANCH   1  15
TORSDOF 3
ENDMDL
MODEL 5
REMARK VINA RESULT:    -4.354      9.933     10.998
REMARK INTER + INTRA:          -5.551
REMARK INTER:                  -5.248
REMARK INTRA:                  -0.303
REMARK CONF_INDEPENDENT:        0.895
REMARK UNBOUND:                 0.303
REMARK SMILES O=[N+]([O-])CCc1ccccc1
REMARK SMILES IDX 5 1 6 4 7 5 11 6 8 7 10 9 9 11 4 15 2 18 1 19 3 20
REMARK H PARENT 5 2 5 3 7 8 11 10 8 12 10 13 9 14 4 16 4 17
REMARK Flexibility Score: inf
ROOT
ATOM      1  C   UNL     1       2.769   2.170  -5.883  1.00  0.00     0.037 C 
ATOM      2  H   UNL     1       1.946   2.022  -5.171  1.00  0.00     0.038 H 
ATOM      3  H   UNL     1       3.175   3.167  -5.665  1.00  0.00     0.038 H 
ENDROOT
BRANCH   1   4
ATOM      4  C   UNL     1       3.853   1.151  -5.619  1.00  0.00    -0.041 A 
ATOM      5  C   UNL     1       3.536  -0.135  -5.160  1.00  0.00    -0.059 A 
ATOM      6  C   UNL     1       5.196   1.468  -5.868  1.00  0.00    -0.059 A 
ATOM      7  C   UNL     1       4.541  -1.081  -4.947  1.00  0.00    -0.062 A 
ATOM      8  H   UNL     1       2.503  -0.422  -4.976  1.00  0.00     0.063 H 
ATOM      9  C   UNL     1       6.199   0.520  -5.659  1.00  0.00    -0.062 A 
ATOM     10  H   UNL     1       5.475   2.453  -6.238  1.00  0.00     0.063 H 
ATOM     11  C   UNL     1       5.872  -0.754  -5.198  1.00  0.00    -0.062 A 
ATOM     12  H   UNL     1       4.285  -2.076  -4.594  1.00  0.00     0.062 H 
ATOM     13  H   UNL     1       7.237   0.772  -5.864  1.00  0.00     0.062 H 
ATOM     14  H   UNL     1       6.653  -1.494  -5.041  1.00  0.00     0.062 H 
ENDBRANCH   1   4
BRANCH   1  15
ATOM     15  C   UNL     1       2.234   2.101  -7.304  1.00  0.00     0.207 C 
ATOM     16  H   UNL     1       2.913   1.580  -7.986  1.00  0.00     0.111 H 
ATOM     17  H   UNL     1       2.001   3.086  -7.722  1.00  0.00     0.111 H 
BRANCH  15  18
ATOM     18  N   UNL     1       0.953   1.330  -7.268  1.00  0.00     0.020 N 
ATOM     19  O   UNL     1       0.836   0.471  -6.384  1.00  0.00    -0.265 OA
ATOM     20  O   UNL     1       0.096   1.619  -8.113  1.00  0.00    -0.265 OA
ENDBRANCH  15  18
ENDBRANCH   1  15
TORSDOF 3
ENDMDL
MODEL 6
REMARK VINA RESULT:    -4.331     10.122     10.766
REMARK INTER + INTRA:          -5.484
REMARK INTER:                  -5.226
REMARK INTRA:                  -0.258
REMARK CONF_INDEPENDENT:        0.895
REMARK UNBOUND:                 0.258
REMARK SMILES O=[N+]([O-])CCc1ccccc1
REMARK SMILES IDX 5 1 6 4 7 5 11 6 8 7 10 9 9 11 4 15 2 18 1 19 3 20
REMARK H PARENT 5 2 5 3 7 8 11 10 8 12 10 13 9 14 4 16 4 17
REMARK Flexibility Score: inf
ROOT
ATOM      1  C   UNL     1       2.057   6.562   0.586  1.00  0.00     0.037 C 
ATOM      2  H   UNL     1       1.758   6.951   1.570  1.00  0.00     0.038 H 
ATOM      3  H   UNL     1       2.744   7.311   0.168  1.00  0.00     0.038 H 
ENDROOT
BRANCH   1   4
ATOM      4  C   UNL     1       2.817   5.270   0.764  1.00  0.00    -0.041 A 
ATOM      5  C   UNL     1       2.209   4.152   1.354  1.00  0.00    -0.059 A 
ATOM      6  C   UNL     1       4.136   5.157   0.305  1.00  0.00    -0.059 A 
ATOM      7  C   UNL     1       2.909   2.951   1.488  1.00  0.00    -0.062 A 
ATOM      8  H   UNL     1       1.179   4.197   1.703  1.00  0.00     0.063 H 
ATOM      9  C   UNL     1       4.833   3.954   0.435  1.00  0.00    -0.062 A 
ATOM     10  H   UNL     1       4.633   6.001  -0.170  1.00  0.00     0.063 H 
ATOM     11  C   UNL     1       4.220   2.851   1.027  1.00  0.00    -0.062 A 
ATOM     12  H   UNL     1       2.428   2.089   1.944  1.00  0.00     0.062 H 
ATOM     13  H   UNL     1       5.853   3.873   0.067  1.00  0.00     0.062 H 
ATOM     14  H   UNL     1       4.760   1.913   1.122  1.00  0.00     0.062 H 
ENDBRANCH   1   4
BRANCH   1  15
ATOM     15  C   UNL     1       0.828   6.404  -0.294  1.00  0.00     0.207 C 
ATOM     16  H   UNL     1      -0.084   6.774   0.184  1.00  0.00     0.111 H 
ATOM     17  H   UNL     1       0.663   5.371  -0.618  1.00  0.00     0.111 H 
BRANCH  15  18
ATOM     18  N   UNL     1       1.049   7.217  -1.530  1.00  0.00     0.020 N 
ATOM     19  O   UNL     1       0.081   7.371  -2.285  1.00  0.00    -0.265 OA
ATOM     20  O   UNL     1       2.180   7.691  -1.699  1.00  0.00    -0.265 OA
ENDBRANCH  15  18
ENDBRANCH   1  15
TORSDOF 3
ENDMDL
MODEL 7
REMARK VINA RESULT:    -3.889      7.322      8.437
REMARK INTER + INTRA:          -5.010
REMARK INTER:                  -4.784
REMARK INTRA:                  -0.226
REMARK CONF_INDEPENDENT:        0.895
REMARK UNBOUND:                 0.226
REMARK SMILES O=[N+]([O-])CCc1ccccc1
REMARK SMILES IDX 5 1 6 4 7 5 11 6 8 7 10 9 9 11 4 15 2 18 1 19 3 20
REMARK H PARENT 5 2 5 3 7 8 11 10 8 12 10 13 9 14 4 16 4 17
REMARK Flexibility Score: inf
ROOT
ATOM      1  C   UNL     1       5.261  -4.777  -2.280  1.00  0.00     0.037 C 
ATOM      2  H   UNL     1       6.050  -4.331  -1.659  1.00  0.00     0.038 H 
ATOM      3  H   UNL     1       5.482  -5.853  -2.314  1.00  0.00     0.038 H 
ENDROOT
BRANCH   1   4
ATOM      4  C   UNL     1       3.923  -4.591  -1.606  1.00  0.00    -0.041 A 
ATOM      5  C   UNL     1       3.830  -3.992  -0.341  1.00  0.00    -0.059 A 
ATOM      6  C   UNL     1       2.744  -4.981  -2.256  1.00  0.00    -0.059 A 
ATOM      7  C   UNL     1       2.587  -3.796   0.262  1.00  0.00    -0.062 A 
ATOM      8  H   UNL     1       4.723  -3.658   0.183  1.00  0.00     0.063 H 
ATOM      9  C   UNL     1       1.501  -4.780  -1.653  1.00  0.00    -0.062 A 
ATOM     10  H   UNL     1       2.779  -5.436  -3.244  1.00  0.00     0.063 H 
ATOM     11  C   UNL     1       1.422  -4.188  -0.394  1.00  0.00    -0.062 A 
ATOM     12  H   UNL     1       2.525  -3.328   1.242  1.00  0.00     0.062 H 
ATOM     13  H   UNL     1       0.591  -5.078  -2.169  1.00  0.00     0.062 H 
ATOM     14  H   UNL     1       0.454  -4.026   0.072  1.00  0.00     0.062 H 
ENDBRANCH   1   4
BRANCH   1  15
ATOM     15  C   UNL     1       5.306  -4.172  -3.673  1.00  0.00     0.207 C 
ATOM     16  H   UNL     1       5.514  -3.097  -3.660  1.00  0.00     0.111 H 
ATOM     17  H   UNL     1       4.389  -4.346  -4.247  1.00  0.00     0.111 H 
BRANCH  15  18
ATOM     18  N   UNL     1       6.419  -4.836  -4.420  1.00  0.00     0.020 N 
ATOM     19  O   UNL     1       6.484  -4.627  -5.638  1.00  0.00    -0.265 OA
ATOM     20  O   UNL     1       7.203  -5.531  -3.762  1.00  0.00    -0.265 OA
ENDBRANCH  15  18
ENDBRANCH   1  15
TORSDOF 3
ENDMDL
MODEL 8
REMARK VINA RESULT:    -3.525      2.976      3.634
REMARK INTER + INTRA:          -4.744
REMARK INTER:                  -4.420
REMARK INTRA:                  -0.324
REMARK CONF_INDEPENDENT:        0.895
REMARK UNBOUND:                 0.324
REMARK SMILES O=[N+]([O-])CCc1ccccc1
REMARK SMILES IDX 5 1 6 4 7 5 11 6 8 7 10 9 9 11 4 15 2 18 1 19 3 20
REMARK H PARENT 5 2 5 3 7 8 11 10 8 12 10 13 9 14 4 16 4 17
REMARK Flexibility Score: inf
ROOT
ATOM      1  C   UNL     1      -0.373  -2.810  -1.152  1.00  0.00     0.037 C 
ATOM      2  H   UNL     1      -0.633  -3.436  -2.017  1.00  0.00     0.038 H 
ATOM      3  H   UNL     1      -0.472  -1.772  -1.497  1.00  0.00     0.038 H 
ENDROOT
BRANCH   1   4
ATOM      4  C   UNL     1      -1.375  -3.038  -0.046  1.00  0.00    -0.041 A 
ATOM      5  C   UNL     1      -1.043  -2.778   1.292  1.00  0.00    -0.059 A 
ATOM      6  C   UNL     1      -2.672  -3.479  -0.346  1.00  0.00    -0.059 A 
ATOM      7  C   UNL     1      -1.984  -2.963   2.306  1.00  0.00    -0.062 A 
ATOM      8  H   UNL     1      -0.052  -2.415   1.559  1.00  0.00     0.063 H 
ATOM      9  C   UNL     1      -3.613  -3.658   0.670  1.00  0.00    -0.062 A 
ATOM     10  H   UNL     1      -2.966  -3.676  -1.374  1.00  0.00     0.063 H 
ATOM     11  C   UNL     1      -3.269  -3.401   1.996  1.00  0.00    -0.062 A 
ATOM     12  H   UNL     1      -1.717  -2.756   3.340  1.00  0.00     0.062 H 
ATOM     13  H   UNL     1      -4.619  -3.991   0.426  1.00  0.00     0.062 H 
ATOM     14  H   UNL     1      -4.004  -3.535   2.785  1.00  0.00     0.062 H 
ENDBRANCH   1   4
BRANCH   1  15
ATOM     15  C   UNL     1       1.054  -3.104  -0.721  1.00  0.00     0.207 C 
ATOM     16  H   UNL     1       1.283  -2.713   0.276  1.00  0.00     0.111 H 
ATOM     17  H   UNL     1       1.802  -2.728  -1.427  1.00  0.00     0.111 H 
BRANCH  15  18
ATOM     18  N   UNL     1       1.214  -4.590  -0.669  1.00  0.00     0.020 N 
ATOM     19  O   UNL     1       1.612  -5.151  -1.698  1.00  0.00    -0.265 OA
ATOM     20  O   UNL     1       0.954  -5.149   0.404  1.00  0.00    -0.265 OA
ENDBRANCH  15  18
ENDBRANCH   1  15
TORSDOF 3
ENDMDL
