MODEL 1
REMARK VINA RESULT:     8.775      0.000      0.000
REMARK INTER + INTRA:           7.635
REMARK INTER:                   7.880
REMARK INTRA:                  -0.245
REMARK CONF_INDEPENDENT:        0.895
REMARK UNBOUND:                 0.245
REMARK SMILES O=[N+]([O-])CCc1ccccc1
REMARK SMILES IDX 5 1 6 4 7 5 11 6 8 7 10 9 9 11 4 15 2 18 1 19 3 20
REMARK H PARENT 5 2 5 3 7 8 11 10 8 12 10 13 9 14 4 16 4 17
REMARK Flexibility Score: inf
ROOT
ATOM      1  C   UNL     1       5.165   1.984  -4.101  1.00  0.00     0.037 C 
ATOM      2  H   UNL     1       6.002   1.744  -3.432  1.00  0.00     0.038 H 
ATOM      3  H   UNL     1       4.257   1.873  -3.492  1.00  0.00     0.038 H 
ENDROOT
BRANCH   1   4
ATOM      4  C   UNL     1       5.267   3.425  -4.540  1.00  0.00    -0.041 A 
ATOM      5  C   UNL     1       4.124   4.147  -4.915  1.00  0.00    -0.059 A 
ATOM      6  C   UNL     1       6.508   4.077  -4.543  1.00  0.00    -0.059 A 
ATOM      7  C   UNL     1       4.222   5.487  -5.291  1.00  0.00    -0.062 A 
ATOM      8  H   UNL     1       3.142   3.678  -4.904  1.00  0.00     0.063 H 
ATOM      9  C   UNL     1       6.603   5.419  -4.915  1.00  0.00    -0.062 A 
ATOM     10  H   UNL     1       7.412   3.550  -4.245  1.00  0.00     0.063 H 
ATOM     11  C   UNL     1       5.461   6.124  -5.289  1.00  0.00    -0.062 A 
ATOM     12  H   UNL     1       3.330   6.039  -5.576  1.00  0.00     0.062 H 
ATOM     13  H   UNL     1       7.569   5.919  -4.905  1.00  0.00     0.062 H 
ATOM     14  H   UNL     1       5.535   7.171  -5.572  1.00  0.00     0.062 H 
ENDBRANCH   1   4
BRANCH   1  15
ATOM     15  C   UNL     1       5.152   1.014  -5.271  1.00  0.00     0.207 C 
ATOM     16  H   UNL     1       5.615   1.431  -6.170  1.00  0.00     0.111 H 
ATOM     17  H   UNL     1       4.147   0.659  -5.524  1.00  0.00     0.111 H 
BRANCH  15  18
ATOM     18  N   UNL     1       5.949  -0.188  -4.871  1.00  0.00     0.020 N 
ATOM     19  O   UNL     1       5.561  -1.286  -5.290  1.00  0.00    -0.265 OA
ATOM     20  O   UNL     1       6.946   0.006  -4.165  1.00  0.00    -0.265 OA
ENDBRANCH  15  18
ENDBRANCH   1  15
TORSDOF 3
ENDMDL
MODEL 2
REMARK VINA RESULT:     9.996      2.082      2.700
REMARK INTER + INTRA:           8.879
REMARK INTER:                   9.101
REMARK INTRA:                  -0.221
REMARK CONF_INDEPENDENT:        0.895
REMARK UNBOUND:                 0.221
REMARK SMILES O=[N+]([O-])CCc1ccccc1
REMARK SMILES IDX 5 1 6 4 7 5 11 6 8 7 10 9 9 11 4 15 2 18 1 19 3 20
REMARK H PARENT 5 2 5 3 7 8 11 10 8 12 10 13 9 14 4 16 4 17
REMARK Flexibility Score: inf
ROOT
ATOM      1  C   UNL     1       5.394   1.602  -4.637  1.00  0.00     0.037 C 
ATOM      2  H   UNL     1       5.620   1.131  -5.603  1.00  0.00     0.038 H 
ATOM      3  H   UNL     1       6.245   1.364  -3.985  1.00  0.00     0.038 H 
ENDROOT
BRANCH   1   4
ATOM      4  C   UNL     1       5.336   3.102  -4.809  1.00  0.00    -0.041 A 
ATOM      5  C   UNL     1       6.498   3.882  -4.725  1.00  0.00    -0.059 A 
ATOM      6  C   UNL     1       4.117   3.733  -5.095  1.00  0.00    -0.059 A 
ATOM      7  C   UNL     1       6.441   5.264  -4.915  1.00  0.00    -0.062 A 
ATOM      8  H   UNL     1       7.464   3.423  -4.526  1.00  0.00     0.063 H 
ATOM      9  C   UNL     1       4.063   5.115  -5.289  1.00  0.00    -0.062 A 
ATOM     10  H   UNL     1       3.199   3.155  -5.180  1.00  0.00     0.063 H 
ATOM     11  C   UNL     1       5.224   5.880  -5.199  1.00  0.00    -0.062 A 
ATOM     12  H   UNL     1       7.347   5.860  -4.851  1.00  0.00     0.062 H 
ATOM     13  H   UNL     1       3.114   5.595  -5.519  1.00  0.00     0.062 H 
ATOM     14  H   UNL     1       5.181   6.955  -5.356  1.00  0.00     0.062 H 
ENDBRANCH   1   4
BRANCH   1  15
ATOM     15  C   UNL     1       4.105   1.026  -4.076  1.00  0.00     0.207 C 
ATOM     16  H   UNL     1       4.063  -0.065  -4.150  1.00  0.00     0.111 H 
ATOM     17  H   UNL     1       3.208   1.446  -4.544  1.00  0.00     0.111 H 
BRANCH  15  18
ATOM     18  N   UNL     1       4.044   1.381  -2.624  1.00  0.00     0.020 N 
ATOM     19  O   UNL     1       4.811   2.268  -2.228  1.00  0.00    -0.265 OA
ATOM     20  O   UNL     1       3.221   0.772  -1.928  1.00  0.00    -0.265 OA
ENDBRANCH  15  18
ENDBRANCH   1  15
TORSDOF 3
ENDMDL
