REMARK SMILES O=[N+]([O-])CCc1ccccc1
REMARK SMILES IDX 5 1 6 4 7 5 11 6 8 7 10 9 9 11 4 15 2 18 1 19 3 20
REMARK H PARENT 5 2 5 3 7 8 11 10 8 12 10 13 9 14 4 16 4 17
REMARK Flexibility Score: inf
ROOT
ATOM      1  C   UNL     1       2.816  -0.573   0.173  1.00  0.00     0.037 C 
ATOM      2  H   UNL     1       3.371   0.369   0.280  1.00  0.00     0.038 H 
ATOM      3  H   UNL     1       2.993  -1.129   1.104  1.00  0.00     0.038 H 
ENDROOT
BRANCH   1   4
ATOM      4  C   UNL     1       1.338  -0.279   0.072  1.00  0.00    -0.041 A 
ATOM      5  C   UNL     1       0.398  -1.319   0.025  1.00  0.00    -0.059 A 
ATOM      6  C   UNL     1       0.880   1.046   0.062  1.00  0.00    -0.059 A 
ATOM      7  C   UNL     1      -0.968  -1.039  -0.038  1.00  0.00    -0.062 A 
ATOM      8  H   UNL     1       0.717  -2.359   0.052  1.00  0.00     0.063 H 
ATOM      9  C   UNL     1      -0.487   1.324   0.004  1.00  0.00    -0.062 A 
ATOM     10  H   UNL     1       1.582   1.876   0.111  1.00  0.00     0.063 H 
ATOM     11  C   UNL     1      -1.411   0.282  -0.047  1.00  0.00    -0.062 A 
ATOM     12  H   UNL     1      -1.689  -1.852  -0.071  1.00  0.00     0.062 H 
ATOM     13  H   UNL     1      -0.833   2.355   0.006  1.00  0.00     0.062 H 
ATOM     14  H   UNL     1      -2.475   0.499  -0.086  1.00  0.00     0.062 H 
ENDBRANCH   1   4
BRANCH   1  15
ATOM     15  C   UNL     1       3.344  -1.343  -1.026  1.00  0.00     0.207 C 
ATOM     16  H   UNL     1       3.215  -0.799  -1.967  1.00  0.00     0.111 H 
ATOM     17  H   UNL     1       2.896  -2.337  -1.129  1.00  0.00     0.111 H 
BRANCH  15  18
ATOM     18  N   UNL     1       4.812  -1.547  -0.822  1.00  0.00     0.020 N 
ATOM     19  O   UNL     1       5.570  -0.681  -1.277  1.00  0.00    -0.265 OA
ATOM     20  O   UNL     1       5.160  -2.558  -0.199  1.00  0.00    -0.265 OA
ENDBRANCH  15  18
ENDBRANCH   1  15
TORSDOF 3
