MODEL 1
REMARK VINA RESULT:    -4.283      0.000      0.000
REMARK INTER + INTRA:          -5.234
REMARK INTER:                  -5.178
REMARK INTRA:                  -0.056
REMARK CONF_INDEPENDENT:        0.895
REMARK UNBOUND:                 0.056
REMARK SMILES OCCc1ccccc1
REMARK SMILES IDX 3 1 4 4 5 5 9 6 6 7 8 9 7 11 2 15 1 18
REMARK H PARENT 3 2 3 3 5 8 9 10 6 12 8 13 7 14 2 16 2 17 1 19
REMARK Flexibility Score: inf
ROOT
ATOM      1  C   UNL     1      -1.696  -3.811   0.385  1.00  0.00    -0.005 C 
ATOM      2  H   UNL     1      -0.909  -3.150  -0.001  1.00  0.00     0.034 H 
ATOM      3  H   UNL     1      -1.282  -4.826   0.374  1.00  0.00     0.034 H 
ENDROOT
BRANCH   1   4
ATOM      4  C   UNL     1      -2.006  -3.420   1.811  1.00  0.00    -0.046 A 
ATOM      5  C   UNL     1      -0.979  -3.265   2.751  1.00  0.00    -0.059 A 
ATOM      6  C   UNL     1      -3.335  -3.221   2.216  1.00  0.00    -0.059 A 
ATOM      7  C   UNL     1      -1.278  -2.907   4.069  1.00  0.00    -0.062 A 
ATOM      8  H   UNL     1       0.059  -3.414   2.466  1.00  0.00     0.063 H 
ATOM      9  C   UNL     1      -3.630  -2.866   3.531  1.00  0.00    -0.062 A 
ATOM     10  H   UNL     1      -4.148  -3.341   1.501  1.00  0.00     0.063 H 
ATOM     11  C   UNL     1      -2.602  -2.707   4.457  1.00  0.00    -0.062 A 
ATOM     12  H   UNL     1      -0.476  -2.779   4.791  1.00  0.00     0.062 H 
ATOM     13  H   UNL     1      -4.663  -2.711   3.833  1.00  0.00     0.062 H 
ATOM     14  H   UNL     1      -2.832  -2.424   5.481  1.00  0.00     0.062 H 
ENDBRANCH   1   4
BRANCH   1  15
ATOM     15  C   UNL     1      -2.917  -3.749  -0.532  1.00  0.00     0.047 C 
ATOM     16  H   UNL     1      -3.448  -4.706  -0.495  1.00  0.00     0.057 H 
ATOM     17  H   UNL     1      -3.617  -2.963  -0.231  1.00  0.00     0.057 H 
BRANCH  15  18
ATOM     18  O   UNL     1      -2.543  -3.529  -1.889  1.00  0.00    -0.396 OA
ATOM     19  H   UNL     1      -2.234  -4.386  -2.235  1.00  0.00     0.210 HD
ENDBRANCH  15  18
ENDBRANCH   1  15
TORSDOF 3
ENDMDL
MODEL 2
REMARK VINA RESULT:    -4.085     10.268     11.418
REMARK INTER + INTRA:          -5.090
REMARK INTER:                  -4.980
REMARK INTRA:                  -0.110
REMARK CONF_INDEPENDENT:        0.895
REMARK UNBOUND:                 0.110
REMARK SMILES OCCc1ccccc1
REMARK SMILES IDX 3 1 4 4 5 5 9 6 6 7 8 9 7 11 2 15 1 18
REMARK H PARENT 3 2 3 3 5 8 9 10 6 12 8 13 7 14 2 16 2 17 1 19
REMARK Flexibility Score: inf
ROOT
ATOM      1  C   UNL     1       4.342   1.138  -5.236  1.00  0.00    -0.005 C 
ATOM      2  H   UNL     1       4.804   2.023  -4.779  1.00  0.00     0.034 H 
ATOM      3  H   UNL     1       3.995   0.507  -4.409  1.00  0.00     0.034 H 
ENDROOT
BRANCH   1   4
ATOM      4  C   UNL     1       3.150   1.578  -6.054  1.00  0.00    -0.046 A 
ATOM      5  C   UNL     1       3.213   2.728  -6.852  1.00  0.00    -0.059 A 
ATOM      6  C   UNL     1       1.955   0.844  -6.012  1.00  0.00    -0.059 A 
ATOM      7  C   UNL     1       2.104   3.127  -7.603  1.00  0.00    -0.062 A 
ATOM      8  H   UNL     1       4.126   3.316  -6.903  1.00  0.00     0.063 H 
ATOM      9  C   UNL     1       0.849   1.246  -6.760  1.00  0.00    -0.062 A 
ATOM     10  H   UNL     1       1.884  -0.051  -5.394  1.00  0.00     0.063 H 
ATOM     11  C   UNL     1       0.924   2.386  -7.556  1.00  0.00    -0.062 A 
ATOM     12  H   UNL     1       2.163   4.015  -8.227  1.00  0.00     0.062 H 
ATOM     13  H   UNL     1      -0.070   0.668  -6.722  1.00  0.00     0.062 H 
ATOM     14  H   UNL     1       0.063   2.696  -8.143  1.00  0.00     0.062 H 
ENDBRANCH   1   4
BRANCH   1  15
ATOM     15  C   UNL     1       5.383   0.377  -6.055  1.00  0.00     0.047 C 
ATOM     16  H   UNL     1       5.197   0.542  -7.121  1.00  0.00     0.057 H 
ATOM     17  H   UNL     1       6.403   0.711  -5.835  1.00  0.00     0.057 H 
BRANCH  15  18
ATOM     18  O   UNL     1       5.306  -1.027  -5.827  1.00  0.00    -0.396 OA
ATOM     19  H   UNL     1       4.582  -1.361  -6.387  1.00  0.00     0.210 HD
ENDBRANCH  15  18
ENDBRANCH   1  15
TORSDOF 3
ENDMDL
MODEL 3
REMARK VINA RESULT:    -3.787      2.055      3.363
REMARK INTER + INTRA:          -4.736
REMARK INTER:                  -4.682
REMARK INTRA:                  -0.055
REMARK CONF_INDEPENDENT:        0.895
REMARK UNBOUND:                 0.055
REMARK SMILES OCCc1ccccc1
REMARK SMILES IDX 3 1 4 4 5 5 9 6 6 7 8 9 7 11 2 15 1 18
REMARK H PARENT 3 2 3 3 5 8 9 10 6 12 8 13 7 14 2 16 2 17 1 19
REMARK Flexibility Score: inf
ROOT
ATOM      1  C   UNL     1      -3.527  -3.425   0.846  1.00  0.00    -0.005 C 
ATOM      2  H   UNL     1      -3.770  -4.026   1.731  1.00  0.00     0.034 H 
ATOM      3  H   UNL     1      -3.937  -2.424   1.028  1.00  0.00     0.034 H 
ENDROOT
BRANCH   1   4
ATOM      4  C   UNL     1      -2.024  -3.326   0.721  1.00  0.00    -0.046 A 
ATOM      5  C   UNL     1      -1.410  -3.281  -0.537  1.00  0.00    -0.059 A 
ATOM      6  C   UNL     1      -1.221  -3.293   1.871  1.00  0.00    -0.059 A 
ATOM      7  C   UNL     1      -0.019  -3.193  -0.641  1.00  0.00    -0.062 A 
ATOM      8  H   UNL     1      -2.008  -3.305  -1.445  1.00  0.00     0.063 H 
ATOM      9  C   UNL     1       0.167  -3.208   1.765  1.00  0.00    -0.062 A 
ATOM     10  H   UNL     1      -1.678  -3.332   2.859  1.00  0.00     0.063 H 
ATOM     11  C   UNL     1       0.767  -3.156   0.510  1.00  0.00    -0.062 A 
ATOM     12  H   UNL     1       0.450  -3.149  -1.620  1.00  0.00     0.062 H 
ATOM     13  H   UNL     1       0.779  -3.180   2.663  1.00  0.00     0.062 H 
ATOM     14  H   UNL     1       1.849  -3.084   0.428  1.00  0.00     0.062 H 
ENDBRANCH   1   4
BRANCH   1  15
ATOM     15  C   UNL     1      -4.192  -4.031  -0.389  1.00  0.00     0.047 C 
ATOM     16  H   UNL     1      -3.668  -3.690  -1.288  1.00  0.00     0.057 H 
ATOM     17  H   UNL     1      -4.160  -5.126  -0.377  1.00  0.00     0.057 H 
BRANCH  15  18
ATOM     18  O   UNL     1      -5.549  -3.616  -0.511  1.00  0.00    -0.396 OA
ATOM     19  H   UNL     1      -5.817  -3.280   0.363  1.00  0.00     0.210 HD
ENDBRANCH  15  18
ENDBRANCH   1  15
TORSDOF 3
ENDMDL
MODEL 4
REMARK VINA RESULT:    -3.726      1.635      2.841
REMARK INTER + INTRA:          -4.713
REMARK INTER:                  -4.620
REMARK INTRA:                  -0.093
REMARK CONF_INDEPENDENT:        0.895
REMARK UNBOUND:                 0.093
REMARK SMILES OCCc1ccccc1
REMARK SMILES IDX 3 1 4 4 5 5 9 6 6 7 8 9 7 11 2 15 1 18
REMARK H PARENT 3 2 3 3 5 8 9 10 6 12 8 13 7 14 2 16 2 17 1 19
REMARK Flexibility Score: inf
ROOT
ATOM      1  C   UNL     1      -2.646  -4.736   0.343  1.00  0.00    -0.005 C 
ATOM      2  H   UNL     1      -2.326  -5.732   0.009  1.00  0.00     0.034 H 
ATOM      3  H   UNL     1      -3.312  -4.895   1.200  1.00  0.00     0.034 H 
ENDROOT
BRANCH   1   4
ATOM      4  C   UNL     1      -1.431  -3.962   0.799  1.00  0.00    -0.046 A 
ATOM      5  C   UNL     1      -1.433  -3.283   2.024  1.00  0.00    -0.059 A 
ATOM      6  C   UNL     1      -0.288  -3.901  -0.011  1.00  0.00    -0.059 A 
ATOM      7  C   UNL     1      -0.305  -2.566   2.435  1.00  0.00    -0.062 A 
ATOM      8  H   UNL     1      -2.306  -3.312   2.672  1.00  0.00     0.063 H 
ATOM      9  C   UNL     1       0.835  -3.183   0.400  1.00  0.00    -0.062 A 
ATOM     10  H   UNL     1      -0.268  -4.418  -0.970  1.00  0.00     0.063 H 
ATOM     11  C   UNL     1       0.827  -2.517   1.623  1.00  0.00    -0.062 A 
ATOM     12  H   UNL     1      -0.309  -2.049   3.390  1.00  0.00     0.062 H 
ATOM     13  H   UNL     1       1.717  -3.146  -0.235  1.00  0.00     0.062 H 
ATOM     14  H   UNL     1       1.705  -1.963   1.945  1.00  0.00     0.062 H 
ENDBRANCH   1   4
BRANCH   1  15
ATOM     15  C   UNL     1      -3.416  -4.039  -0.777  1.00  0.00     0.047 C 
ATOM     16  H   UNL     1      -4.125  -4.744  -1.224  1.00  0.00     0.057 H 
ATOM     17  H   UNL     1      -3.984  -3.177  -0.411  1.00  0.00     0.057 H 
BRANCH  15  18
ATOM     18  O   UNL     1      -2.547  -3.601  -1.818  1.00  0.00    -0.396 OA
ATOM     19  H   UNL     1      -2.204  -4.403  -2.251  1.00  0.00     0.210 HD
ENDBRANCH  15  18
ENDBRANCH   1  15
TORSDOF 3
ENDMDL
MODEL 5
REMARK VINA RESULT:    -3.701      9.708     10.424
REMARK INTER + INTRA:          -4.648
REMARK INTER:                  -4.596
REMARK INTRA:                  -0.052
REMARK CONF_INDEPENDENT:        0.895
REMARK UNBOUND:                 0.052
REMARK SMILES OCCc1ccccc1
REMARK SMILES IDX 3 1 4 4 5 5 9 6 6 7 8 9 7 11 2 15 1 18
REMARK H PARENT 3 2 3 3 5 8 9 10 6 12 8 13 7 14 2 16 2 17 1 19
REMARK Flexibility Score: inf
ROOT
ATOM      1  C   UNL     1       1.173   4.994   1.741  1.00  0.00    -0.005 C 
ATOM      2  H   UNL     1       1.016   5.693   2.574  1.00  0.00     0.034 H 
ATOM      3  H   UNL     1       0.392   5.211   1.003  1.00  0.00     0.034 H 
ENDROOT
BRANCH   1   4
ATOM      4  C   UNL     1       2.525   5.266   1.124  1.00  0.00    -0.046 A 
ATOM      5  C   UNL     1       3.551   4.315   1.196  1.00  0.00    -0.059 A 
ATOM      6  C   UNL     1       2.775   6.488   0.482  1.00  0.00    -0.059 A 
ATOM      7  C   UNL     1       4.799   4.578   0.625  1.00  0.00    -0.062 A 
ATOM      8  H   UNL     1       3.385   3.359   1.689  1.00  0.00     0.063 H 
ATOM      9  C   UNL     1       4.022   6.750  -0.085  1.00  0.00    -0.062 A 
ATOM     10  H   UNL     1       1.992   7.244   0.419  1.00  0.00     0.063 H 
ATOM     11  C   UNL     1       5.033   5.794  -0.015  1.00  0.00    -0.062 A 
ATOM     12  H   UNL     1       5.587   3.832   0.676  1.00  0.00     0.062 H 
ATOM     13  H   UNL     1       4.203   7.699  -0.584  1.00  0.00     0.062 H 
ATOM     14  H   UNL     1       6.003   5.996  -0.462  1.00  0.00     0.062 H 
ENDBRANCH   1   4
BRANCH   1  15
ATOM     15  C   UNL     1       1.019   3.557   2.238  1.00  0.00     0.047 C 
ATOM     16  H   UNL     1       0.639   2.931   1.424  1.00  0.00     0.057 H 
ATOM     17  H   UNL     1       1.973   3.134   2.571  1.00  0.00     0.057 H 
BRANCH  15  18
ATOM     18  O   UNL     1       0.083   3.469   3.308  1.00  0.00    -0.396 OA
ATOM     19  H   UNL     1       0.457   3.981   4.048  1.00  0.00     0.210 HD
ENDBRANCH  15  18
ENDBRANCH   1  15
TORSDOF 3
ENDMDL
MODEL 6
REMARK VINA RESULT:    -3.696      2.585      4.068
REMARK INTER + INTRA:          -4.718
REMARK INTER:                  -4.591
REMARK INTRA:                  -0.128
REMARK CONF_INDEPENDENT:        0.895
REMARK UNBOUND:                 0.128
REMARK SMILES OCCc1ccccc1
REMARK SMILES IDX 3 1 4 4 5 5 9 6 6 7 8 9 7 11 2 15 1 18
REMARK H PARENT 3 2 3 3 5 8 9 10 6 12 8 13 7 14 2 16 2 17 1 19
REMARK Flexibility Score: inf
ROOT
ATOM      1  C   UNL     1      -0.142  -3.340   5.126  1.00  0.00    -0.005 C 
ATOM      2  H   UNL     1      -0.600  -3.532   6.105  1.00  0.00     0.034 H 
ATOM      3  H   UNL     1       0.446  -4.232   4.878  1.00  0.00     0.034 H 
ENDROOT
BRANCH   1   4
ATOM      4  C   UNL     1      -1.238  -3.171   4.099  1.00  0.00    -0.046 A 
ATOM      5  C   UNL     1      -1.008  -3.470   2.750  1.00  0.00    -0.059 A 
ATOM      6  C   UNL     1      -2.501  -2.697   4.485  1.00  0.00    -0.059 A 
ATOM      7  C   UNL     1      -2.028  -3.307   1.808  1.00  0.00    -0.062 A 
ATOM      8  H   UNL     1      -0.039  -3.838   2.422  1.00  0.00     0.063 H 
ATOM      9  C   UNL     1      -3.516  -2.533   3.543  1.00  0.00    -0.062 A 
ATOM     10  H   UNL     1      -2.698  -2.455   5.529  1.00  0.00     0.063 H 
ATOM     11  C   UNL     1      -3.280  -2.839   2.205  1.00  0.00    -0.062 A 
ATOM     12  H   UNL     1      -1.846  -3.549   0.764  1.00  0.00     0.062 H 
ATOM     13  H   UNL     1      -4.491  -2.169   3.855  1.00  0.00     0.062 H 
ATOM     14  H   UNL     1      -4.073  -2.717   1.472  1.00  0.00     0.062 H 
ENDBRANCH   1   4
BRANCH   1  15
ATOM     15  C   UNL     1       0.784  -2.128   5.218  1.00  0.00     0.047 C 
ATOM     16  H   UNL     1       0.275  -1.322   5.757  1.00  0.00     0.057 H 
ATOM     17  H   UNL     1       1.710  -2.359   5.755  1.00  0.00     0.057 H 
BRANCH  15  18
ATOM     18  O   UNL     1       1.119  -1.624   3.928  1.00  0.00    -0.396 OA
ATOM     19  H   UNL     1       1.126  -0.653   4.002  1.00  0.00     0.210 HD
ENDBRANCH  15  18
ENDBRANCH   1  15
TORSDOF 3
ENDMDL
MODEL 7
REMARK VINA RESULT:    -3.649      9.839     11.072
REMARK INTER + INTRA:          -4.654
REMARK INTER:                  -4.544
REMARK INTRA:                  -0.110
REMARK CONF_INDEPENDENT:        0.895
REMARK UNBOUND:                 0.110
REMARK SMILES OCCc1ccccc1
REMARK SMILES IDX 3 1 4 4 5 5 9 6 6 7 8 9 7 11 2 15 1 18
REMARK H PARENT 3 2 3 3 5 8 9 10 6 12 8 13 7 14 2 16 2 17 1 19
REMARK Flexibility Score: inf
ROOT
ATOM      1  C   UNL     1       2.466   2.565  -6.546  1.00  0.00    -0.005 C 
ATOM      2  H   UNL     1       1.986   3.019  -5.669  1.00  0.00     0.034 H 
ATOM      3  H   UNL     1       3.001   3.374  -7.059  1.00  0.00     0.034 H 
ENDROOT
BRANCH   1   4
ATOM      4  C   UNL     1       3.464   1.533  -6.077  1.00  0.00    -0.046 A 
ATOM      5  C   UNL     1       3.065   0.471  -5.254  1.00  0.00    -0.059 A 
ATOM      6  C   UNL     1       4.813   1.635  -6.449  1.00  0.00    -0.059 A 
ATOM      7  C   UNL     1       3.997  -0.476  -4.823  1.00  0.00    -0.062 A 
ATOM      8  H   UNL     1       2.026   0.369  -4.950  1.00  0.00     0.063 H 
ATOM      9  C   UNL     1       5.742   0.689  -6.015  1.00  0.00    -0.062 A 
ATOM     10  H   UNL     1       5.145   2.455  -7.084  1.00  0.00     0.063 H 
ATOM     11  C   UNL     1       5.334  -0.366  -5.204  1.00  0.00    -0.062 A 
ATOM     12  H   UNL     1       3.679  -1.302  -4.193  1.00  0.00     0.062 H 
ATOM     13  H   UNL     1       6.784   0.776  -6.313  1.00  0.00     0.062 H 
ATOM     14  H   UNL     1       6.057  -1.106  -4.871  1.00  0.00     0.062 H 
ENDBRANCH   1   4
BRANCH   1  15
ATOM     15  C   UNL     1       1.401   1.989  -7.478  1.00  0.00     0.047 C 
ATOM     16  H   UNL     1       0.862   2.809  -7.965  1.00  0.00     0.057 H 
ATOM     17  H   UNL     1       1.838   1.361  -8.262  1.00  0.00     0.057 H 
BRANCH  15  18
ATOM     18  O   UNL     1       0.439   1.220  -6.763  1.00  0.00    -0.396 OA
ATOM     19  H   UNL     1       0.388   1.601  -5.867  1.00  0.00     0.210 HD
ENDBRANCH  15  18
ENDBRANCH   1  15
TORSDOF 3
ENDMDL
MODEL 8
REMARK VINA RESULT:    -3.565      2.235      3.880
REMARK INTER + INTRA:          -4.572
REMARK INTER:                  -4.460
REMARK INTRA:                  -0.112
REMARK CONF_INDEPENDENT:        0.895
REMARK UNBOUND:                 0.112
REMARK SMILES OCCc1ccccc1
REMARK SMILES IDX 3 1 4 4 5 5 9 6 6 7 8 9 7 11 2 15 1 18
REMARK H PARENT 3 2 3 3 5 8 9 10 6 12 8 13 7 14 2 16 2 17 1 19
REMARK Flexibility Score: inf
ROOT
ATOM      1  C   UNL     1      -2.286  -3.273   3.321  1.00  0.00    -0.005 C 
ATOM      2  H   UNL     1      -2.294  -4.311   3.679  1.00  0.00     0.034 H 
ATOM      3  H   UNL     1      -1.386  -2.807   3.740  1.00  0.00     0.034 H 
ENDROOT
BRANCH   1   4
ATOM      4  C   UNL     1      -2.183  -3.278   1.813  1.00  0.00    -0.046 A 
ATOM      5  C   UNL     1      -0.999  -2.888   1.174  1.00  0.00    -0.059 A 
ATOM      6  C   UNL     1      -3.284  -3.660   1.032  1.00  0.00    -0.059 A 
ATOM      7  C   UNL     1      -0.916  -2.892  -0.221  1.00  0.00    -0.062 A 
ATOM      8  H   UNL     1      -0.131  -2.586   1.755  1.00  0.00     0.063 H 
ATOM      9  C   UNL     1      -3.199  -3.662  -0.360  1.00  0.00    -0.062 A 
ATOM     10  H   UNL     1      -4.215  -3.963   1.509  1.00  0.00     0.063 H 
ATOM     11  C   UNL     1      -2.016  -3.280  -0.986  1.00  0.00    -0.062 A 
ATOM     12  H   UNL     1       0.008  -2.598  -0.710  1.00  0.00     0.062 H 
ATOM     13  H   UNL     1      -4.057  -3.964  -0.955  1.00  0.00     0.062 H 
ATOM     14  H   UNL     1      -1.948  -3.287  -2.071  1.00  0.00     0.062 H 
ENDBRANCH   1   4
BRANCH   1  15
ATOM     15  C   UNL     1      -3.525  -2.541   3.835  1.00  0.00     0.047 C 
ATOM     16  H   UNL     1      -3.391  -2.301   4.895  1.00  0.00     0.057 H 
ATOM     17  H   UNL     1      -3.700  -1.603   3.297  1.00  0.00     0.057 H 
BRANCH  15  18
ATOM     18  O   UNL     1      -4.693  -3.350   3.732  1.00  0.00    -0.396 OA
ATOM     19  H   UNL     1      -5.455  -2.755   3.855  1.00  0.00     0.210 HD
ENDBRANCH  15  18
ENDBRANCH   1  15
TORSDOF 3
ENDMDL
MODEL 9
REMARK VINA RESULT:    -3.539      3.159      4.910
REMARK INTER + INTRA:          -4.550
REMARK INTER:                  -4.434
REMARK INTRA:                  -0.117
REMARK CONF_INDEPENDENT:        0.895
REMARK UNBOUND:                 0.117
REMARK SMILES OCCc1ccccc1
REMARK SMILES IDX 3 1 4 4 5 5 9 6 6 7 8 9 7 11 2 15 1 18
REMARK H PARENT 3 2 3 3 5 8 9 10 6 12 8 13 7 14 2 16 2 17 1 19
REMARK Flexibility Score: inf
ROOT
ATOM      1  C   UNL     1      -1.071  -2.578  -0.280  1.00  0.00    -0.005 C 
ATOM      2  H   UNL     1      -1.055  -2.347   0.793  1.00  0.00     0.034 H 
ATOM      3  H   UNL     1      -1.116  -1.616  -0.804  1.00  0.00     0.034 H 
ENDROOT
BRANCH   1   4
ATOM      4  C   UNL     1       0.216  -3.279  -0.647  1.00  0.00    -0.046 A 
ATOM      5  C   UNL     1       1.187  -3.550   0.326  1.00  0.00    -0.059 A 
ATOM      6  C   UNL     1       0.462  -3.656  -1.976  1.00  0.00    -0.059 A 
ATOM      7  C   UNL     1       2.376  -4.196  -0.024  1.00  0.00    -0.062 A 
ATOM      8  H   UNL     1       1.024  -3.269   1.364  1.00  0.00     0.063 H 
ATOM      9  C   UNL     1       1.649  -4.298  -2.323  1.00  0.00    -0.062 A 
ATOM     10  H   UNL     1      -0.279  -3.450  -2.748  1.00  0.00     0.063 H 
ATOM     11  C   UNL     1       2.605  -4.570  -1.348  1.00  0.00    -0.062 A 
ATOM     12  H   UNL     1       3.121  -4.412   0.736  1.00  0.00     0.062 H 
ATOM     13  H   UNL     1       1.827  -4.588  -3.356  1.00  0.00     0.062 H 
ATOM     14  H   UNL     1       3.529  -5.076  -1.619  1.00  0.00     0.062 H 
ENDBRANCH   1   4
BRANCH   1  15
ATOM     15  C   UNL     1      -2.316  -3.399  -0.613  1.00  0.00     0.047 C 
ATOM     16  H   UNL     1      -2.178  -4.427  -0.261  1.00  0.00     0.057 H 
ATOM     17  H   UNL     1      -3.214  -2.996  -0.132  1.00  0.00     0.057 H 
BRANCH  15  18
ATOM     18  O   UNL     1      -2.542  -3.463  -2.018  1.00  0.00    -0.396 OA
ATOM     19  H   UNL     1      -2.527  -4.406  -2.260  1.00  0.00     0.210 HD
ENDBRANCH  15  18
ENDBRANCH   1  15
TORSDOF 3
ENDMDL
