REMARK SMILES OCCc1ccccc1
REMARK SMILES IDX 3 1 4 4 5 5 9 6 6 7 8 9 7 11 2 15 1 18
REMARK H PARENT 3 2 3 3 5 8 9 10 6 12 8 13 7 14 2 16 2 17 1 19
REMARK Flexibility Score: inf
ROOT
ATOM      1  C   UNL     1       2.858  -0.369   0.206  1.00  0.00    -0.005 C 
ATOM      2  H   UNL     1       3.287   0.455   0.791  1.00  0.00     0.034 H 
ATOM      3  H   UNL     1       3.079  -1.290   0.759  1.00  0.00     0.034 H 
ENDROOT
BRANCH   1   4
ATOM      4  C   UNL     1       1.360  -0.186   0.131  1.00  0.00    -0.046 A 
ATOM      5  C   UNL     1       0.509  -1.290  -0.010  1.00  0.00    -0.059 A 
ATOM      6  C   UNL     1       0.802   1.100   0.187  1.00  0.00    -0.059 A 
ATOM      7  C   UNL     1      -0.875  -1.109  -0.082  1.00  0.00    -0.062 A 
ATOM      8  H   UNL     1       0.914  -2.298  -0.057  1.00  0.00     0.063 H 
ATOM      9  C   UNL     1      -0.579   1.278   0.113  1.00  0.00    -0.062 A 
ATOM     10  H   UNL     1       1.447   1.972   0.292  1.00  0.00     0.063 H 
ATOM     11  C   UNL     1      -1.417   0.174  -0.020  1.00  0.00    -0.062 A 
ATOM     12  H   UNL     1      -1.530  -1.970  -0.182  1.00  0.00     0.062 H 
ATOM     13  H   UNL     1      -1.000   2.279   0.161  1.00  0.00     0.062 H 
ATOM     14  H   UNL     1      -2.494   0.313  -0.072  1.00  0.00     0.062 H 
ENDBRANCH   1   4
BRANCH   1  15
ATOM     15  C   UNL     1       3.524  -0.428  -1.168  1.00  0.00     0.047 C 
ATOM     16  H   UNL     1       4.596  -0.615  -1.044  1.00  0.00     0.057 H 
ATOM     17  H   UNL     1       3.112  -1.230  -1.790  1.00  0.00     0.057 H 
BRANCH  15  18
ATOM     18  O   UNL     1       3.391   0.805  -1.869  1.00  0.00    -0.396 OA
ATOM     19  H   UNL     1       2.446   0.902  -2.085  1.00  0.00     0.210 HD
ENDBRANCH  15  18
ENDBRANCH   1  15
TORSDOF 3
