MODEL 1
REMARK VINA RESULT:    -5.309      0.000      0.000
REMARK INTER + INTRA:          -6.274
REMARK INTER:                  -6.204
REMARK INTRA:                  -0.070
REMARK CONF_INDEPENDENT:        0.895
REMARK UNBOUND:                 0.070
REMARK SMILES OCCc1ccccc1
REMARK SMILES IDX 3 1 4 4 5 5 9 6 6 7 8 9 7 11 2 15 1 18
REMARK H PARENT 3 2 3 3 5 8 9 10 6 12 8 13 7 14 2 16 2 17 1 19
REMARK Flexibility Score: inf
ROOT
ATOM      1  C   UNL     1      26.332  92.024  28.114  1.00  0.00    -0.005 C 
ATOM      2  H   UNL     1      26.718  91.079  28.518  1.00  0.00     0.034 H 
ATOM      3  H   UNL     1      25.364  91.792  27.653  1.00  0.00     0.034 H 
ENDROOT
BRANCH   1   4
ATOM      4  C   UNL     1      26.116  92.991  29.255  1.00  0.00    -0.046 A 
ATOM      5  C   UNL     1      24.954  92.931  30.035  1.00  0.00    -0.059 A 
ATOM      6  C   UNL     1      27.076  93.975  29.538  1.00  0.00    -0.059 A 
ATOM      7  C   UNL     1      24.763  93.833  31.085  1.00  0.00    -0.062 A 
ATOM      8  H   UNL     1      24.194  92.180  29.838  1.00  0.00     0.063 H 
ATOM      9  C   UNL     1      26.881  94.875  30.585  1.00  0.00    -0.062 A 
ATOM     10  H   UNL     1      27.984  94.041  28.940  1.00  0.00     0.063 H 
ATOM     11  C   UNL     1      25.726  94.803  31.359  1.00  0.00    -0.062 A 
ATOM     12  H   UNL     1      23.864  93.775  31.693  1.00  0.00     0.062 H 
ATOM     13  H   UNL     1      27.633  95.630  30.797  1.00  0.00     0.062 H 
ATOM     14  H   UNL     1      25.578  95.501  32.179  1.00  0.00     0.062 H 
ENDBRANCH   1   4
BRANCH   1  15
ATOM     15  C   UNL     1      27.289  92.558  27.049  1.00  0.00     0.047 C 
ATOM     16  H   UNL     1      27.314  93.652  27.099  1.00  0.00     0.057 H 
ATOM     17  H   UNL     1      28.310  92.190  27.192  1.00  0.00     0.057 H 
BRANCH  15  18
ATOM     18  O   UNL     1      26.860  92.208  25.736  1.00  0.00    -0.396 OA
ATOM     19  H   UNL     1      27.529  92.560  25.121  1.00  0.00     0.210 HD
ENDBRANCH  15  18
ENDBRANCH   1  15
TORSDOF 3
ENDMDL
MODEL 2
REMARK VINA RESULT:    -4.956      8.524      9.674
REMARK INTER + INTRA:          -5.947
REMARK INTER:                  -5.851
REMARK INTRA:                  -0.097
REMARK CONF_INDEPENDENT:        0.895
REMARK UNBOUND:                 0.097
REMARK SMILES OCCc1ccccc1
REMARK SMILES IDX 3 1 4 4 5 5 9 6 6 7 8 9 7 11 2 15 1 18
REMARK H PARENT 3 2 3 3 5 8 9 10 6 12 8 13 7 14 2 16 2 17 1 19
REMARK Flexibility Score: inf
ROOT
ATOM      1  C   UNL     1      34.066  87.868  28.468  1.00  0.00    -0.005 C 
ATOM      2  H   UNL     1      33.632  88.546  29.214  1.00  0.00     0.034 H 
ATOM      3  H   UNL     1      34.554  87.061  29.027  1.00  0.00     0.034 H 
ENDROOT
BRANCH   1   4
ATOM      4  C   UNL     1      32.950  87.284  27.632  1.00  0.00    -0.046 A 
ATOM      5  C   UNL     1      31.626  87.304  28.090  1.00  0.00    -0.059 A 
ATOM      6  C   UNL     1      33.231  86.698  26.389  1.00  0.00    -0.059 A 
ATOM      7  C   UNL     1      30.602  86.758  27.311  1.00  0.00    -0.062 A 
ATOM      8  H   UNL     1      31.380  87.751  29.050  1.00  0.00     0.063 H 
ATOM      9  C   UNL     1      32.208  86.152  25.614  1.00  0.00    -0.062 A 
ATOM     10  H   UNL     1      34.255  86.668  26.017  1.00  0.00     0.063 H 
ATOM     11  C   UNL     1      30.894  86.184  26.074  1.00  0.00    -0.062 A 
ATOM     12  H   UNL     1      29.576  86.786  27.667  1.00  0.00     0.062 H 
ATOM     13  H   UNL     1      32.437  85.704  24.651  1.00  0.00     0.062 H 
ATOM     14  H   UNL     1      30.096  85.763  25.468  1.00  0.00     0.062 H 
ENDBRANCH   1   4
BRANCH   1  15
ATOM     15  C   UNL     1      35.109  88.614  27.637  1.00  0.00     0.047 C 
ATOM     16  H   UNL     1      36.040  88.693  28.209  1.00  0.00     0.057 H 
ATOM     17  H   UNL     1      35.333  88.096  26.698  1.00  0.00     0.057 H 
BRANCH  15  18
ATOM     18  O   UNL     1      34.688  89.941  27.334  1.00  0.00    -0.396 OA
ATOM     19  H   UNL     1      35.480  90.424  27.038  1.00  0.00     0.210 HD
ENDBRANCH  15  18
ENDBRANCH   1  15
TORSDOF 3
ENDMDL
MODEL 3
REMARK VINA RESULT:    -4.933      8.286      9.550
REMARK INTER + INTRA:          -5.946
REMARK INTER:                  -5.828
REMARK INTRA:                  -0.118
REMARK CONF_INDEPENDENT:        0.895
REMARK UNBOUND:                 0.118
REMARK SMILES OCCc1ccccc1
REMARK SMILES IDX 3 1 4 4 5 5 9 6 6 7 8 9 7 11 2 15 1 18
REMARK H PARENT 3 2 3 3 5 8 9 10 6 12 8 13 7 14 2 16 2 17 1 19
REMARK Flexibility Score: inf
ROOT
ATOM      1  C   UNL     1      34.874  87.816  27.463  1.00  0.00    -0.005 C 
ATOM      2  H   UNL     1      35.177  87.924  28.512  1.00  0.00     0.034 H 
ATOM      3  H   UNL     1      35.501  87.023  27.039  1.00  0.00     0.034 H 
ENDROOT
BRANCH   1   4
ATOM      4  C   UNL     1      33.428  87.381  27.414  1.00  0.00    -0.046 A 
ATOM      5  C   UNL     1      32.930  86.668  26.316  1.00  0.00    -0.059 A 
ATOM      6  C   UNL     1      32.558  87.701  28.468  1.00  0.00    -0.059 A 
ATOM      7  C   UNL     1      31.590  86.273  26.280  1.00  0.00    -0.062 A 
ATOM      8  H   UNL     1      33.582  86.407  25.485  1.00  0.00     0.063 H 
ATOM      9  C   UNL     1      31.221  87.308  28.428  1.00  0.00    -0.062 A 
ATOM     10  H   UNL     1      32.925  88.260  29.329  1.00  0.00     0.063 H 
ATOM     11  C   UNL     1      30.738  86.593  27.335  1.00  0.00    -0.062 A 
ATOM     12  H   UNL     1      31.213  85.712  25.429  1.00  0.00     0.062 H 
ATOM     13  H   UNL     1      30.558  87.559  29.252  1.00  0.00     0.062 H 
ATOM     14  H   UNL     1      29.696  86.282  27.308  1.00  0.00     0.062 H 
ENDBRANCH   1   4
BRANCH   1  15
ATOM     15  C   UNL     1      35.132  89.124  26.715  1.00  0.00     0.047 C 
ATOM     16  H   UNL     1      36.205  89.344  26.728  1.00  0.00     0.057 H 
ATOM     17  H   UNL     1      34.813  89.068  25.668  1.00  0.00     0.057 H 
BRANCH  15  18
ATOM     18  O   UNL     1      34.469  90.222  27.334  1.00  0.00    -0.396 OA
ATOM     19  H   UNL     1      35.110  90.955  27.359  1.00  0.00     0.210 HD
ENDBRANCH  15  18
ENDBRANCH   1  15
TORSDOF 3
ENDMDL
MODEL 4
REMARK VINA RESULT:    -4.814      9.685     11.646
REMARK INTER + INTRA:          -5.800
REMARK INTER:                  -5.709
REMARK INTRA:                  -0.091
REMARK CONF_INDEPENDENT:        0.895
REMARK UNBOUND:                 0.091
REMARK SMILES OCCc1ccccc1
REMARK SMILES IDX 3 1 4 4 5 5 9 6 6 7 8 9 7 11 2 15 1 18
REMARK H PARENT 3 2 3 3 5 8 9 10 6 12 8 13 7 14 2 16 2 17 1 19
REMARK Flexibility Score: inf
ROOT
ATOM      1  C   UNL     1      34.574  87.708  27.946  1.00  0.00    -0.005 C 
ATOM      2  H   UNL     1      35.026  87.484  28.921  1.00  0.00     0.034 H 
ATOM      3  H   UNL     1      35.230  88.441  27.461  1.00  0.00     0.034 H 
ENDROOT
BRANCH   1   4
ATOM      4  C   UNL     1      34.550  86.444  27.118  1.00  0.00    -0.046 A 
ATOM      5  C   UNL     1      33.574  86.252  26.131  1.00  0.00    -0.059 A 
ATOM      6  C   UNL     1      35.501  85.436  27.340  1.00  0.00    -0.059 A 
ATOM      7  C   UNL     1      33.559  85.077  25.374  1.00  0.00    -0.062 A 
ATOM      8  H   UNL     1      32.825  87.016  25.939  1.00  0.00     0.063 H 
ATOM      9  C   UNL     1      35.482  84.265  26.584  1.00  0.00    -0.062 A 
ATOM     10  H   UNL     1      36.265  85.564  28.106  1.00  0.00     0.063 H 
ATOM     11  C   UNL     1      34.513  84.086  25.600  1.00  0.00    -0.062 A 
ATOM     12  H   UNL     1      32.806  84.939  24.603  1.00  0.00     0.062 H 
ATOM     13  H   UNL     1      36.226  83.492  26.762  1.00  0.00     0.062 H 
ATOM     14  H   UNL     1      34.502  83.175  25.008  1.00  0.00     0.062 H 
ENDBRANCH   1   4
BRANCH   1  15
ATOM     15  C   UNL     1      33.188  88.319  28.147  1.00  0.00     0.047 C 
ATOM     16  H   UNL     1      33.293  89.375  28.416  1.00  0.00     0.057 H 
ATOM     17  H   UNL     1      32.578  88.262  27.239  1.00  0.00     0.057 H 
BRANCH  15  18
ATOM     18  O   UNL     1      32.483  87.683  29.209  1.00  0.00    -0.396 OA
ATOM     19  H   UNL     1      32.190  88.390  29.811  1.00  0.00     0.210 HD
ENDBRANCH  15  18
ENDBRANCH   1  15
TORSDOF 3
ENDMDL
MODEL 5
REMARK VINA RESULT:    -4.610      8.400      9.452
REMARK INTER + INTRA:          -5.608
REMARK INTER:                  -5.505
REMARK INTRA:                  -0.102
REMARK CONF_INDEPENDENT:        0.895
REMARK UNBOUND:                 0.102
REMARK SMILES OCCc1ccccc1
REMARK SMILES IDX 3 1 4 4 5 5 9 6 6 7 8 9 7 11 2 15 1 18
REMARK H PARENT 3 2 3 3 5 8 9 10 6 12 8 13 7 14 2 16 2 17 1 19
REMARK Flexibility Score: inf
ROOT
ATOM      1  C   UNL     1      32.558  85.908  25.020  1.00  0.00    -0.005 C 
ATOM      2  H   UNL     1      33.137  86.385  24.218  1.00  0.00     0.034 H 
ATOM      3  H   UNL     1      32.941  84.885  25.113  1.00  0.00     0.034 H 
ENDROOT
BRANCH   1   4
ATOM      4  C   UNL     1      32.813  86.650  26.312  1.00  0.00    -0.046 A 
ATOM      5  C   UNL     1      31.764  86.925  27.199  1.00  0.00    -0.059 A 
ATOM      6  C   UNL     1      34.107  87.086  26.633  1.00  0.00    -0.059 A 
ATOM      7  C   UNL     1      32.010  87.614  28.390  1.00  0.00    -0.062 A 
ATOM      8  H   UNL     1      30.751  86.599  26.976  1.00  0.00     0.063 H 
ATOM      9  C   UNL     1      34.349  87.776  27.821  1.00  0.00    -0.062 A 
ATOM     10  H   UNL     1      34.935  86.886  25.954  1.00  0.00     0.063 H 
ATOM     11  C   UNL     1      33.301  88.038  28.699  1.00  0.00    -0.062 A 
ATOM     12  H   UNL     1      31.193  87.817  29.078  1.00  0.00     0.062 H 
ATOM     13  H   UNL     1      35.357  88.106  28.060  1.00  0.00     0.062 H 
ATOM     14  H   UNL     1      33.492  88.571  29.628  1.00  0.00     0.062 H 
ENDBRANCH   1   4
BRANCH   1  15
ATOM     15  C   UNL     1      31.080  85.866  24.635  1.00  0.00     0.047 C 
ATOM     16  H   UNL     1      30.957  85.251  23.737  1.00  0.00     0.057 H 
ATOM     17  H   UNL     1      30.462  85.432  25.428  1.00  0.00     0.057 H 
BRANCH  15  18
ATOM     18  O   UNL     1      30.581  87.164  24.327  1.00  0.00    -0.396 OA
ATOM     19  H   UNL     1      30.978  87.420  23.475  1.00  0.00     0.210 HD
ENDBRANCH  15  18
ENDBRANCH   1  15
TORSDOF 3
ENDMDL
MODEL 6
REMARK VINA RESULT:    -4.440     10.732     12.338
REMARK INTER + INTRA:          -5.442
REMARK INTER:                  -5.335
REMARK INTRA:                  -0.108
REMARK CONF_INDEPENDENT:        0.895
REMARK UNBOUND:                 0.108
REMARK SMILES OCCc1ccccc1
REMARK SMILES IDX 3 1 4 4 5 5 9 6 6 7 8 9 7 11 2 15 1 18
REMARK H PARENT 3 2 3 3 5 8 9 10 6 12 8 13 7 14 2 16 2 17 1 19
REMARK Flexibility Score: inf
ROOT
ATOM      1  C   UNL     1      34.764  87.357  26.965  1.00  0.00    -0.005 C 
ATOM      2  H   UNL     1      35.788  87.657  26.705  1.00  0.00     0.034 H 
ATOM      3  H   UNL     1      34.100  88.120  26.542  1.00  0.00     0.034 H 
ENDROOT
BRANCH   1   4
ATOM      4  C   UNL     1      34.465  86.026  26.315  1.00  0.00    -0.046 A 
ATOM      5  C   UNL     1      35.257  84.903  26.583  1.00  0.00    -0.059 A 
ATOM      6  C   UNL     1      33.393  85.904  25.419  1.00  0.00    -0.059 A 
ATOM      7  C   UNL     1      34.973  83.678  25.973  1.00  0.00    -0.062 A 
ATOM      8  H   UNL     1      36.095  84.969  27.273  1.00  0.00     0.063 H 
ATOM      9  C   UNL     1      33.113  84.681  24.810  1.00  0.00    -0.062 A 
ATOM     10  H   UNL     1      32.767  86.767  25.193  1.00  0.00     0.063 H 
ATOM     11  C   UNL     1      33.902  83.568  25.088  1.00  0.00    -0.062 A 
ATOM     12  H   UNL     1      35.586  82.808  26.193  1.00  0.00     0.062 H 
ATOM     13  H   UNL     1      32.277  84.598  24.120  1.00  0.00     0.062 H 
ATOM     14  H   UNL     1      33.680  82.614  24.618  1.00  0.00     0.062 H 
ENDBRANCH   1   4
BRANCH   1  15
ATOM     15  C   UNL     1      34.606  87.330  28.485  1.00  0.00     0.047 C 
ATOM     16  H   UNL     1      34.366  88.337  28.843  1.00  0.00     0.057 H 
ATOM     17  H   UNL     1      33.800  86.660  28.802  1.00  0.00     0.057 H 
BRANCH  15  18
ATOM     18  O   UNL     1      35.811  86.931  29.131  1.00  0.00    -0.396 OA
ATOM     19  H   UNL     1      36.507  86.935  28.450  1.00  0.00     0.210 HD
ENDBRANCH  15  18
ENDBRANCH   1  15
TORSDOF 3
ENDMDL
MODEL 7
REMARK VINA RESULT:    -4.421      4.071      7.165
REMARK INTER + INTRA:          -5.381
REMARK INTER:                  -5.316
REMARK INTRA:                  -0.065
REMARK CONF_INDEPENDENT:        0.895
REMARK UNBOUND:                 0.065
REMARK SMILES OCCc1ccccc1
REMARK SMILES IDX 3 1 4 4 5 5 9 6 6 7 8 9 7 11 2 15 1 18
REMARK H PARENT 3 2 3 3 5 8 9 10 6 12 8 13 7 14 2 16 2 17 1 19
REMARK Flexibility Score: inf
ROOT
ATOM      1  C   UNL     1      26.485  91.785  25.217  1.00  0.00    -0.005 C 
ATOM      2  H   UNL     1      26.555  92.757  24.712  1.00  0.00     0.034 H 
ATOM      3  H   UNL     1      25.419  91.610  25.407  1.00  0.00     0.034 H 
ENDROOT
BRANCH   1   4
ATOM      4  C   UNL     1      27.002  90.713  24.286  1.00  0.00    -0.046 A 
ATOM      5  C   UNL     1      28.343  90.309  24.333  1.00  0.00    -0.059 A 
ATOM      6  C   UNL     1      26.145  90.117  23.349  1.00  0.00    -0.059 A 
ATOM      7  C   UNL     1      28.812  89.319  23.465  1.00  0.00    -0.062 A 
ATOM      8  H   UNL     1      29.030  90.754  25.049  1.00  0.00     0.063 H 
ATOM      9  C   UNL     1      26.616  89.131  22.482  1.00  0.00    -0.062 A 
ATOM     10  H   UNL     1      25.100  90.421  23.293  1.00  0.00     0.063 H 
ATOM     11  C   UNL     1      27.948  88.731  22.541  1.00  0.00    -0.062 A 
ATOM     12  H   UNL     1      29.851  89.003  23.513  1.00  0.00     0.062 H 
ATOM     13  H   UNL     1      25.941  88.675  21.763  1.00  0.00     0.062 H 
ATOM     14  H   UNL     1      28.314  87.959  21.870  1.00  0.00     0.062 H 
ENDBRANCH   1   4
BRANCH   1  15
ATOM     15  C   UNL     1      27.237  91.838  26.546  1.00  0.00     0.047 C 
ATOM     16  H   UNL     1      27.882  90.958  26.633  1.00  0.00     0.057 H 
ATOM     17  H   UNL     1      27.870  92.729  26.624  1.00  0.00     0.057 H 
BRANCH  15  18
ATOM     18  O   UNL     1      26.343  91.816  27.655  1.00  0.00    -0.396 OA
ATOM     19  H   UNL     1      25.506  91.440  27.331  1.00  0.00     0.210 HD
ENDBRANCH  15  18
ENDBRANCH   1  15
TORSDOF 3
ENDMDL
MODEL 8
REMARK VINA RESULT:    -3.788      5.752      7.328
REMARK INTER + INTRA:          -4.761
REMARK INTER:                  -4.683
REMARK INTRA:                  -0.078
REMARK CONF_INDEPENDENT:        0.895
REMARK UNBOUND:                 0.078
REMARK SMILES OCCc1ccccc1
REMARK SMILES IDX 3 1 4 4 5 5 9 6 6 7 8 9 7 11 2 15 1 18
REMARK H PARENT 3 2 3 3 5 8 9 10 6 12 8 13 7 14 2 16 2 17 1 19
REMARK Flexibility Score: inf
ROOT
ATOM      1  C   UNL     1      25.733  89.491  21.389  1.00  0.00    -0.005 C 
ATOM      2  H   UNL     1      26.417  89.446  20.531  1.00  0.00     0.034 H 
ATOM      3  H   UNL     1      25.350  88.474  21.535  1.00  0.00     0.034 H 
ENDROOT
BRANCH   1   4
ATOM      4  C   UNL     1      26.514  89.905  22.614  1.00  0.00    -0.046 A 
ATOM      5  C   UNL     1      25.912  90.669  23.623  1.00  0.00    -0.059 A 
ATOM      6  C   UNL     1      27.861  89.540  22.750  1.00  0.00    -0.059 A 
ATOM      7  C   UNL     1      26.645  91.050  24.751  1.00  0.00    -0.062 A 
ATOM      8  H   UNL     1      24.870  90.968  23.544  1.00  0.00     0.063 H 
ATOM      9  C   UNL     1      28.591  89.922  23.875  1.00  0.00    -0.062 A 
ATOM     10  H   UNL     1      28.348  88.949  21.974  1.00  0.00     0.063 H 
ATOM     11  C   UNL     1      27.982  90.676  24.876  1.00  0.00    -0.062 A 
ATOM     12  H   UNL     1      26.170  91.635  25.534  1.00  0.00     0.062 H 
ATOM     13  H   UNL     1      29.633  89.630  23.970  1.00  0.00     0.062 H 
ATOM     14  H   UNL     1      28.550  90.969  25.755  1.00  0.00     0.062 H 
ENDBRANCH   1   4
BRANCH   1  15
ATOM     15  C   UNL     1      24.570  90.431  21.073  1.00  0.00     0.047 C 
ATOM     16  H   UNL     1      24.923  91.468  21.104  1.00  0.00     0.057 H 
ATOM     17  H   UNL     1      24.152  90.247  20.078  1.00  0.00     0.057 H 
BRANCH  15  18
ATOM     18  O   UNL     1      23.525  90.315  22.034  1.00  0.00    -0.396 OA
ATOM     19  H   UNL     1      23.111  91.194  22.103  1.00  0.00     0.210 HD
ENDBRANCH  15  18
ENDBRANCH   1  15
TORSDOF 3
ENDMDL
MODEL 9
REMARK VINA RESULT:    -3.688      7.263      9.754
REMARK INTER + INTRA:          -4.702
REMARK INTER:                  -4.583
REMARK INTRA:                  -0.119
REMARK CONF_INDEPENDENT:        0.895
REMARK UNBOUND:                 0.119
REMARK SMILES OCCc1ccccc1
REMARK SMILES IDX 3 1 4 4 5 5 9 6 6 7 8 9 7 11 2 15 1 18
REMARK H PARENT 3 2 3 3 5 8 9 10 6 12 8 13 7 14 2 16 2 17 1 19
REMARK Flexibility Score: inf
ROOT
ATOM      1  C   UNL     1      27.078  89.154  23.498  1.00  0.00    -0.005 C 
ATOM      2  H   UNL     1      26.082  89.479  23.171  1.00  0.00     0.034 H 
ATOM      3  H   UNL     1      26.982  88.878  24.555  1.00  0.00     0.034 H 
ENDROOT
BRANCH   1   4
ATOM      4  C   UNL     1      27.478  87.932  22.704  1.00  0.00    -0.046 A 
ATOM      5  C   UNL     1      28.748  87.360  22.859  1.00  0.00    -0.059 A 
ATOM      6  C   UNL     1      26.582  87.361  21.787  1.00  0.00    -0.059 A 
ATOM      7  C   UNL     1      29.108  86.232  22.117  1.00  0.00    -0.062 A 
ATOM      8  H   UNL     1      29.462  87.782  23.562  1.00  0.00     0.063 H 
ATOM      9  C   UNL     1      26.946  86.237  21.047  1.00  0.00    -0.062 A 
ATOM     10  H   UNL     1      25.592  87.793  21.649  1.00  0.00     0.063 H 
ATOM     11  C   UNL     1      28.207  85.672  21.212  1.00  0.00    -0.062 A 
ATOM     12  H   UNL     1      30.091  85.788  22.248  1.00  0.00     0.062 H 
ATOM     13  H   UNL     1      26.242  85.802  20.342  1.00  0.00     0.062 H 
ATOM     14  H   UNL     1      28.488  84.792  20.639  1.00  0.00     0.062 H 
ENDBRANCH   1   4
BRANCH   1  15
ATOM     15  C   UNL     1      28.069  90.308  23.361  1.00  0.00     0.047 C 
ATOM     16  H   UNL     1      27.534  91.259  23.455  1.00  0.00     0.057 H 
ATOM     17  H   UNL     1      28.844  90.279  24.135  1.00  0.00     0.057 H 
BRANCH  15  18
ATOM     18  O   UNL     1      28.702  90.308  22.084  1.00  0.00    -0.396 OA
ATOM     19  H   UNL     1      29.438  90.943  22.138  1.00  0.00     0.210 HD
ENDBRANCH  15  18
ENDBRANCH   1  15
TORSDOF 3
ENDMDL
