MODEL 1
REMARK VINA RESULT:    -4.400      0.000      0.000
REMARK INTER + INTRA:          -5.140
REMARK INTER:                  -4.997
REMARK INTRA:                  -0.144
REMARK CONF_INDEPENDENT:        0.597
REMARK UNBOUND:                 0.144
REMARK SMILES CC1=C(O)C(=O)CO1
REMARK SMILES IDX 8 1 7 2 5 3 3 4 2 5 6 6 1 9 4 13
REMARK H PARENT 7 7 7 8 1 10 1 11 1 12 4 14
REMARK Flexibility Score: inf
ROOT
ATOM      1  O   UNL     1       6.439  -4.191  20.075  1.00  0.00    -0.486 OA
ATOM      2  C   UNL     1       6.930  -4.962  18.956  1.00  0.00     0.154 C 
ATOM      3  C   UNL     1       6.156  -4.435  17.788  1.00  0.00     0.237 C 
ATOM      4  C   UNL     1       5.218  -3.419  18.251  1.00  0.00     0.200 C 
ATOM      5  C   UNL     1       5.450  -3.349  19.561  1.00  0.00     0.139 C 
ATOM      6  O   UNL     1       6.248  -4.771  16.617  1.00  0.00    -0.287 OA
ATOM      7  H   UNL     1       6.707  -6.018  19.126  1.00  0.00     0.080 H 
ATOM      8  H   UNL     1       8.000  -4.782  18.835  1.00  0.00     0.080 H 
ENDROOT
BRANCH   5   9
ATOM      9  C   UNL     1       4.754  -2.470  20.540  1.00  0.00    -0.003 C 
ATOM     10  H   UNL     1       3.931  -2.989  21.042  1.00  0.00     0.031 H 
ATOM     11  H   UNL     1       4.344  -1.590  20.035  1.00  0.00     0.031 H 
ATOM     12  H   UNL     1       5.455  -2.132  21.309  1.00  0.00     0.031 H 
ENDBRANCH   5   9
BRANCH   4  13
ATOM     13  O   UNL     1       4.337  -2.744  17.470  1.00  0.00    -0.502 OA
ATOM     14  H   UNL     1       4.666  -1.823  17.441  1.00  0.00     0.293 HD
ENDBRANCH   4  13
TORSDOF 2
ENDMDL
MODEL 2
REMARK VINA RESULT:    -4.333      1.212      3.372
REMARK INTER + INTRA:          -5.434
REMARK INTER:                  -4.929
REMARK INTRA:                  -0.505
REMARK CONF_INDEPENDENT:        0.597
REMARK UNBOUND:                 0.505
REMARK SMILES CC1=C(O)C(=O)CO1
REMARK SMILES IDX 8 1 7 2 5 3 3 4 2 5 6 6 1 9 4 13
REMARK H PARENT 7 7 7 8 1 10 1 11 1 12 4 14
REMARK Flexibility Score: inf
ROOT
ATOM      1  O   UNL     1       4.516  -3.304  17.860  1.00  0.00    -0.486 OA
ATOM      2  C   UNL     1       4.574  -3.048  19.281  1.00  0.00     0.154 C 
ATOM      3  C   UNL     1       5.863  -3.680  19.708  1.00  0.00     0.237 C 
ATOM      4  C   UNL     1       6.492  -4.315  18.556  1.00  0.00     0.200 C 
ATOM      5  C   UNL     1       5.656  -4.051  17.554  1.00  0.00     0.139 C 
ATOM      6  O   UNL     1       6.352  -3.698  20.827  1.00  0.00    -0.287 OA
ATOM      7  H   UNL     1       3.724  -3.533  19.766  1.00  0.00     0.080 H 
ATOM      8  H   UNL     1       4.586  -1.969  19.454  1.00  0.00     0.080 H 
ENDROOT
BRANCH   5   9
ATOM      9  C   UNL     1       5.805  -4.479  16.136  1.00  0.00    -0.003 C 
ATOM     10  H   UNL     1       4.993  -5.143  15.822  1.00  0.00     0.031 H 
ATOM     11  H   UNL     1       6.752  -5.010  15.998  1.00  0.00     0.031 H 
ATOM     12  H   UNL     1       5.798  -3.607  15.475  1.00  0.00     0.031 H 
ENDBRANCH   5   9
BRANCH   4  13
ATOM     13  O   UNL     1       7.661  -5.005  18.576  1.00  0.00    -0.502 OA
ATOM     14  H   UNL     1       8.055  -4.825  19.453  1.00  0.00     0.293 HD
ENDBRANCH   4  13
TORSDOF 2
ENDMDL
MODEL 3
REMARK VINA RESULT:    -3.692      1.173      2.320
REMARK INTER + INTRA:          -4.808
REMARK INTER:                  -4.288
REMARK INTRA:                  -0.519
REMARK CONF_INDEPENDENT:        0.597
REMARK UNBOUND:                 0.519
REMARK SMILES CC1=C(O)C(=O)CO1
REMARK SMILES IDX 8 1 7 2 5 3 3 4 2 5 6 6 1 9 4 13
REMARK H PARENT 7 7 7 8 1 10 1 11 1 12 4 14
REMARK Flexibility Score: inf
ROOT
ATOM      1  O   UNL     1       4.012  -3.395  18.293  1.00  0.00    -0.486 OA
ATOM      2  C   UNL     1       4.227  -3.698  16.896  1.00  0.00     0.154 C 
ATOM      3  C   UNL     1       5.575  -4.351  16.873  1.00  0.00     0.237 C 
ATOM      4  C   UNL     1       6.122  -4.372  18.224  1.00  0.00     0.200 C 
ATOM      5  C   UNL     1       5.166  -3.808  18.961  1.00  0.00     0.139 C 
ATOM      6  O   UNL     1       6.171  -4.802  15.907  1.00  0.00    -0.287 OA
ATOM      7  H   UNL     1       4.237  -2.766  16.326  1.00  0.00     0.080 H 
ATOM      8  H   UNL     1       3.450  -4.384  16.551  1.00  0.00     0.080 H 
ENDROOT
BRANCH   5   9
ATOM      9  C   UNL     1       5.205  -3.562  20.429  1.00  0.00    -0.003 C 
ATOM     10  H   UNL     1       5.639  -4.406  20.974  1.00  0.00     0.031 H 
ATOM     11  H   UNL     1       4.193  -3.394  20.811  1.00  0.00     0.031 H 
ATOM     12  H   UNL     1       5.808  -2.676  20.647  1.00  0.00     0.031 H 
ENDBRANCH   5   9
BRANCH   4  13
ATOM     13  O   UNL     1       7.337  -4.866  18.576  1.00  0.00    -0.502 OA
ATOM     14  H   UNL     1       7.734  -5.198  17.746  1.00  0.00     0.293 HD
ENDBRANCH   4  13
TORSDOF 2
ENDMDL
MODEL 4
REMARK VINA RESULT:    -3.687      1.425      1.915
REMARK INTER + INTRA:          -4.419
REMARK INTER:                  -4.283
REMARK INTRA:                  -0.135
REMARK CONF_INDEPENDENT:        0.597
REMARK UNBOUND:                 0.135
REMARK SMILES CC1=C(O)C(=O)CO1
REMARK SMILES IDX 8 1 7 2 5 3 3 4 2 5 6 6 1 9 4 13
REMARK H PARENT 7 7 7 8 1 10 1 11 1 12 4 14
REMARK Flexibility Score: inf
ROOT
ATOM      1  O   UNL     1       6.661  -4.418  17.731  1.00  0.00    -0.486 OA
ATOM      2  C   UNL     1       6.158  -4.809  16.433  1.00  0.00     0.154 C 
ATOM      3  C   UNL     1       4.863  -4.067  16.310  1.00  0.00     0.237 C 
ATOM      4  C   UNL     1       4.624  -3.311  17.534  1.00  0.00     0.200 C 
ATOM      5  C   UNL     1       5.695  -3.572  18.281  1.00  0.00     0.139 C 
ATOM      6  O   UNL     1       4.089  -4.066  15.365  1.00  0.00    -0.287 OA
ATOM      7  H   UNL     1       5.990  -5.889  16.426  1.00  0.00     0.080 H 
ATOM      8  H   UNL     1       6.867  -4.498  15.662  1.00  0.00     0.080 H 
ENDROOT
BRANCH   5   9
ATOM      9  C   UNL     1       5.967  -3.062  19.653  1.00  0.00    -0.003 C 
ATOM     10  H   UNL     1       5.847  -3.843  20.411  1.00  0.00     0.031 H 
ATOM     11  H   UNL     1       5.282  -2.244  19.896  1.00  0.00     0.031 H 
ATOM     12  H   UNL     1       6.992  -2.685  19.719  1.00  0.00     0.031 H 
ENDBRANCH   5   9
BRANCH   4  13
ATOM     13  O   UNL     1       3.534  -2.542  17.785  1.00  0.00    -0.502 OA
ATOM     14  H   UNL     1       3.882  -1.643  17.950  1.00  0.00     0.293 HD
ENDBRANCH   4  13
TORSDOF 2
ENDMDL
MODEL 5
REMARK VINA RESULT:    -3.505      1.592      3.045
REMARK INTER + INTRA:          -4.601
REMARK INTER:                  -4.102
REMARK INTRA:                  -0.499
REMARK CONF_INDEPENDENT:        0.597
REMARK UNBOUND:                 0.499
REMARK SMILES CC1=C(O)C(=O)CO1
REMARK SMILES IDX 8 1 7 2 5 3 3 4 2 5 6 6 1 9 4 13
REMARK H PARENT 7 7 7 8 1 10 1 11 1 12 4 14
REMARK Flexibility Score: inf
ROOT
ATOM      1  O   UNL     1       4.039  -3.691  18.027  1.00  0.00    -0.486 OA
ATOM      2  C   UNL     1       5.075  -3.914  19.011  1.00  0.00     0.154 C 
ATOM      3  C   UNL     1       6.205  -4.494  18.218  1.00  0.00     0.237 C 
ATOM      4  C   UNL     1       5.794  -4.635  16.827  1.00  0.00     0.200 C 
ATOM      5  C   UNL     1       4.552  -4.155  16.813  1.00  0.00     0.139 C 
ATOM      6  O   UNL     1       7.310  -4.823  18.622  1.00  0.00    -0.287 OA
ATOM      7  H   UNL     1       4.713  -4.629  19.754  1.00  0.00     0.080 H 
ATOM      8  H   UNL     1       5.356  -2.960  19.461  1.00  0.00     0.080 H 
ENDROOT
BRANCH   5   9
ATOM      9  C   UNL     1       3.645  -4.071  15.636  1.00  0.00    -0.003 C 
ATOM     10  H   UNL     1       2.855  -3.327  15.782  1.00  0.00     0.031 H 
ATOM     11  H   UNL     1       3.171  -5.040  15.453  1.00  0.00     0.031 H 
ATOM     12  H   UNL     1       4.210  -3.788  14.743  1.00  0.00     0.031 H 
ENDBRANCH   5   9
BRANCH   4  13
ATOM     13  O   UNL     1       6.556  -5.150  15.828  1.00  0.00    -0.502 OA
ATOM     14  H   UNL     1       7.328  -5.556  16.270  1.00  0.00     0.293 HD
ENDBRANCH   4  13
TORSDOF 2
ENDMDL
MODEL 6
REMARK VINA RESULT:    -3.293      1.348      2.413
REMARK INTER + INTRA:          -4.362
REMARK INTER:                  -3.890
REMARK INTRA:                  -0.472
REMARK CONF_INDEPENDENT:        0.597
REMARK UNBOUND:                 0.472
REMARK SMILES CC1=C(O)C(=O)CO1
REMARK SMILES IDX 8 1 7 2 5 3 3 4 2 5 6 6 1 9 4 13
REMARK H PARENT 7 7 7 8 1 10 1 11 1 12 4 14
REMARK Flexibility Score: inf
ROOT
ATOM      1  O   UNL     1       4.613  -4.082  17.149  1.00  0.00    -0.486 OA
ATOM      2  C   UNL     1       5.953  -4.569  16.908  1.00  0.00     0.154 C 
ATOM      3  C   UNL     1       6.560  -4.645  18.275  1.00  0.00     0.237 C 
ATOM      4  C   UNL     1       5.593  -4.168  19.257  1.00  0.00     0.200 C 
ATOM      5  C   UNL     1       4.520  -3.870  18.527  1.00  0.00     0.139 C 
ATOM      6  O   UNL     1       7.680  -5.027  18.576  1.00  0.00    -0.287 OA
ATOM      7  H   UNL     1       6.488  -3.847  16.285  1.00  0.00     0.080 H 
ATOM      8  H   UNL     1       5.901  -5.556  16.443  1.00  0.00     0.080 H 
ENDROOT
BRANCH   5   9
ATOM      9  C   UNL     1       3.229  -3.323  19.026  1.00  0.00    -0.003 C 
ATOM     10  H   UNL     1       3.279  -3.061  20.088  1.00  0.00     0.031 H 
ATOM     11  H   UNL     1       2.429  -4.058  18.893  1.00  0.00     0.031 H 
ATOM     12  H   UNL     1       2.962  -2.419  18.470  1.00  0.00     0.031 H 
ENDBRANCH   5   9
BRANCH   4  13
ATOM     13  O   UNL     1       5.809  -4.073  20.594  1.00  0.00    -0.502 OA
ATOM     14  H   UNL     1       6.781  -4.090  20.704  1.00  0.00     0.293 HD
ENDBRANCH   4  13
TORSDOF 2
ENDMDL
MODEL 7
REMARK VINA RESULT:    -3.151      1.348      2.677
REMARK INTER + INTRA:          -4.240
REMARK INTER:                  -3.748
REMARK INTRA:                  -0.492
REMARK CONF_INDEPENDENT:        0.597
REMARK UNBOUND:                 0.492
REMARK SMILES CC1=C(O)C(=O)CO1
REMARK SMILES IDX 8 1 7 2 5 3 3 4 2 5 6 6 1 9 4 13
REMARK H PARENT 7 7 7 8 1 10 1 11 1 12 4 14
REMARK Flexibility Score: inf
ROOT
ATOM      1  O   UNL     1       4.771  -4.349  19.953  1.00  0.00    -0.486 OA
ATOM      2  C   UNL     1       3.540  -3.670  19.615  1.00  0.00     0.154 C 
ATOM      3  C   UNL     1       3.755  -3.217  18.204  1.00  0.00     0.237 C 
ATOM      4  C   UNL     1       5.097  -3.595  17.777  1.00  0.00     0.200 C 
ATOM      5  C   UNL     1       5.598  -4.231  18.834  1.00  0.00     0.139 C 
ATOM      6  O   UNL     1       2.973  -2.616  17.484  1.00  0.00    -0.287 OA
ATOM      7  H   UNL     1       3.409  -2.815  20.283  1.00  0.00     0.080 H 
ATOM      8  H   UNL     1       2.709  -4.376  19.681  1.00  0.00     0.080 H 
ENDROOT
BRANCH   5   9
ATOM      9  C   UNL     1       6.959  -4.823  18.952  1.00  0.00    -0.003 C 
ATOM     10  H   UNL     1       7.681  -4.110  19.363  1.00  0.00     0.031 H 
ATOM     11  H   UNL     1       7.318  -5.144  17.970  1.00  0.00     0.031 H 
ATOM     12  H   UNL     1       6.935  -5.695  19.613  1.00  0.00     0.031 H 
ENDBRANCH   5   9
BRANCH   4  13
ATOM     13  O   UNL     1       5.645  -3.323  16.565  1.00  0.00    -0.502 OA
ATOM     14  H   UNL     1       5.054  -2.660  16.154  1.00  0.00     0.293 HD
ENDBRANCH   4  13
TORSDOF 2
ENDMDL
MODEL 8
REMARK VINA RESULT:    -2.950      7.273      8.420
REMARK INTER + INTRA:          -3.668
REMARK INTER:                  -3.547
REMARK INTRA:                  -0.121
REMARK CONF_INDEPENDENT:        0.597
REMARK UNBOUND:                 0.121
REMARK SMILES CC1=C(O)C(=O)CO1
REMARK SMILES IDX 8 1 7 2 5 3 3 4 2 5 6 6 1 9 4 13
REMARK H PARENT 7 7 7 8 1 10 1 11 1 12 4 14
REMARK Flexibility Score: inf
ROOT
ATOM      1  O   UNL     1      -0.692  -1.605  16.998  1.00  0.00    -0.486 OA
ATOM      2  C   UNL     1      -0.932  -0.342  16.337  1.00  0.00     0.154 C 
ATOM      3  C   UNL     1      -1.703  -0.719  15.110  1.00  0.00     0.237 C 
ATOM      4  C   UNL     1      -1.851  -2.168  15.062  1.00  0.00     0.200 C 
ATOM      5  C   UNL     1      -1.246  -2.585  16.172  1.00  0.00     0.139 C 
ATOM      6  O   UNL     1      -2.150   0.024  14.250  1.00  0.00    -0.287 OA
ATOM      7  H   UNL     1       0.026   0.110  16.071  1.00  0.00     0.080 H 
ATOM      8  H   UNL     1      -1.523   0.302  16.993  1.00  0.00     0.080 H 
ENDROOT
BRANCH   5   9
ATOM      9  C   UNL     1      -1.089  -3.995  16.623  1.00  0.00    -0.003 C 
ATOM     10  H   UNL     1      -2.012  -4.570  16.497  1.00  0.00     0.031 H 
ATOM     11  H   UNL     1      -0.809  -4.026  17.681  1.00  0.00     0.031 H 
ATOM     12  H   UNL     1      -0.304  -4.491  16.044  1.00  0.00     0.031 H 
ENDBRANCH   5   9
BRANCH   4  13
ATOM     13  O   UNL     1      -2.473  -2.866  14.076  1.00  0.00    -0.502 OA
ATOM     14  H   UNL     1      -2.770  -3.699  14.494  1.00  0.00     0.293 HD
ENDBRANCH   4  13
TORSDOF 2
ENDMDL
MODEL 9
REMARK VINA RESULT:    -2.890      7.137      8.518
REMARK INTER + INTRA:          -3.936
REMARK INTER:                  -3.487
REMARK INTRA:                  -0.449
REMARK CONF_INDEPENDENT:        0.597
REMARK UNBOUND:                 0.449
REMARK SMILES CC1=C(O)C(=O)CO1
REMARK SMILES IDX 8 1 7 2 5 3 3 4 2 5 6 6 1 9 4 13
REMARK H PARENT 7 7 7 8 1 10 1 11 1 12 4 14
REMARK Flexibility Score: inf
ROOT
ATOM      1  O   UNL     1      -0.812  -1.552  15.572  1.00  0.00    -0.486 OA
ATOM      2  C   UNL     1      -2.091  -0.879  15.506  1.00  0.00     0.154 C 
ATOM      3  C   UNL     1      -2.825  -1.385  16.710  1.00  0.00     0.237 C 
ATOM      4  C   UNL     1      -1.991  -2.355  17.409  1.00  0.00     0.200 C 
ATOM      5  C   UNL     1      -0.870  -2.385  16.691  1.00  0.00     0.139 C 
ATOM      6  O   UNL     1      -3.945  -1.077  17.086  1.00  0.00    -0.287 OA
ATOM      7  H   UNL     1      -2.602  -1.174  14.587  1.00  0.00     0.080 H 
ATOM      8  H   UNL     1      -1.934   0.200  15.563  1.00  0.00     0.080 H 
ENDROOT
BRANCH   5   9
ATOM      9  C   UNL     1       0.331  -3.226  16.952  1.00  0.00    -0.003 C 
ATOM     10  H   UNL     1       0.896  -3.426  16.037  1.00  0.00     0.031 H 
ATOM     11  H   UNL     1       0.034  -4.186  17.386  1.00  0.00     0.031 H 
ATOM     12  H   UNL     1       0.999  -2.721  17.656  1.00  0.00     0.031 H 
ENDBRANCH   5   9
BRANCH   4  13
ATOM     13  O   UNL     1      -2.344  -3.036  18.530  1.00  0.00    -0.502 OA
ATOM     14  H   UNL     1      -3.044  -2.500  18.952  1.00  0.00     0.293 HD
ENDBRANCH   4  13
TORSDOF 2
ENDMDL
