MODEL 1
REMARK VINA RESULT:     3.240      0.000      0.000
REMARK INTER + INTRA:           2.125
REMARK INTER:                   2.644
REMARK INTRA:                  -0.519
REMARK CONF_INDEPENDENT:        0.597
REMARK UNBOUND:                 0.519
REMARK SMILES CC1=C(O)C(=O)CO1
REMARK SMILES IDX 8 1 7 2 5 3 3 4 2 5 6 6 1 9 4 13
REMARK H PARENT 7 7 7 8 1 10 1 11 1 12 4 14
REMARK Flexibility Score: inf
ROOT
ATOM      1  O   UNL     1       4.136   3.197  -5.376  1.00  0.00    -0.486 OA
ATOM      2  C   UNL     1       4.061   1.756  -5.290  1.00  0.00     0.154 C 
ATOM      3  C   UNL     1       5.370   1.364  -4.676  1.00  0.00     0.237 C 
ATOM      4  C   UNL     1       6.179   2.558  -4.464  1.00  0.00     0.200 C 
ATOM      5  C   UNL     1       5.398   3.549  -4.891  1.00  0.00     0.139 C 
ATOM      6  O   UNL     1       5.753   0.240  -4.387  1.00  0.00    -0.287 OA
ATOM      7  H   UNL     1       3.965   1.344  -6.297  1.00  0.00     0.080 H 
ATOM      8  H   UNL     1       3.223   1.476  -4.648  1.00  0.00     0.080 H 
ENDROOT
BRANCH   5   9
ATOM      9  C   UNL     1       5.736   4.998  -4.915  1.00  0.00    -0.003 C 
ATOM     10  H   UNL     1       5.970   5.347  -5.926  1.00  0.00     0.031 H 
ATOM     11  H   UNL     1       6.603   5.196  -4.277  1.00  0.00     0.031 H 
ATOM     12  H   UNL     1       4.893   5.588  -4.544  1.00  0.00     0.031 H 
ENDBRANCH   5   9
BRANCH   4  13
ATOM     13  O   UNL     1       7.434   2.578  -3.948  1.00  0.00    -0.502 OA
ATOM     14  H   UNL     1       7.685   1.640  -3.833  1.00  0.00     0.293 HD
ENDBRANCH   4  13
TORSDOF 2
ENDMDL
MODEL 2
REMARK VINA RESULT:     4.333      1.192      2.237
REMARK INTER + INTRA:           3.517
REMARK INTER:                   3.737
REMARK INTRA:                  -0.220
REMARK CONF_INDEPENDENT:        0.597
REMARK UNBOUND:                 0.220
REMARK SMILES CC1=C(O)C(=O)CO1
REMARK SMILES IDX 8 1 7 2 5 3 3 4 2 5 6 6 1 9 4 13
REMARK H PARENT 7 7 7 8 1 10 1 11 1 12 4 14
REMARK Flexibility Score: inf
ROOT
ATOM      1  O   UNL     1       6.388   3.951  -4.540  1.00  0.00    -0.486 OA
ATOM      2  C   UNL     1       7.026   2.703  -4.188  1.00  0.00     0.154 C 
ATOM      3  C   UNL     1       5.935   1.687  -4.335  1.00  0.00     0.237 C 
ATOM      4  C   UNL     1       4.700   2.360  -4.718  1.00  0.00     0.200 C 
ATOM      5  C   UNL     1       5.053   3.641  -4.809  1.00  0.00     0.139 C 
ATOM      6  O   UNL     1       6.010   0.480  -4.165  1.00  0.00    -0.287 OA
ATOM      7  H   UNL     1       7.369   2.757  -3.152  1.00  0.00     0.080 H 
ATOM      8  H   UNL     1       7.845   2.507  -4.883  1.00  0.00     0.080 H 
ENDROOT
BRANCH   5   9
ATOM      9  C   UNL     1       4.166   4.784  -5.161  1.00  0.00    -0.003 C 
ATOM     10  H   UNL     1       3.701   5.228  -4.275  1.00  0.00     0.031 H 
ATOM     11  H   UNL     1       3.370   4.453  -5.835  1.00  0.00     0.031 H 
ATOM     12  H   UNL     1       4.742   5.567  -5.665  1.00  0.00     0.031 H 
ENDBRANCH   5   9
BRANCH   4  13
ATOM     13  O   UNL     1       3.501   1.756  -4.915  1.00  0.00    -0.502 OA
ATOM     14  H   UNL     1       3.616   1.200  -5.712  1.00  0.00     0.293 HD
ENDBRANCH   4  13
TORSDOF 2
ENDMDL
MODEL 3
REMARK VINA RESULT:     4.745      1.427      2.972
REMARK INTER + INTRA:           3.861
REMARK INTER:                   4.149
REMARK INTRA:                  -0.287
REMARK CONF_INDEPENDENT:        0.597
REMARK UNBOUND:                 0.287
REMARK SMILES CC1=C(O)C(=O)CO1
REMARK SMILES IDX 8 1 7 2 5 3 3 4 2 5 6 6 1 9 4 13
REMARK H PARENT 7 7 7 8 1 10 1 11 1 12 4 14
REMARK Flexibility Score: inf
ROOT
ATOM      1  O   UNL     1       3.686   3.673  -5.268  1.00  0.00    -0.486 OA
ATOM      2  C   UNL     1       4.215   5.018  -5.252  1.00  0.00     0.154 C 
ATOM      3  C   UNL     1       5.662   4.831  -4.915  1.00  0.00     0.237 C 
ATOM      4  C   UNL     1       5.927   3.414  -4.702  1.00  0.00     0.200 C 
ATOM      5  C   UNL     1       4.749   2.835  -4.923  1.00  0.00     0.139 C 
ATOM      6  O   UNL     1       6.523   5.692  -4.813  1.00  0.00    -0.287 OA
ATOM      7  H   UNL     1       3.706   5.593  -4.475  1.00  0.00     0.080 H 
ATOM      8  H   UNL     1       4.094   5.465  -6.241  1.00  0.00     0.080 H 
ENDROOT
BRANCH   5   9
ATOM      9  C   UNL     1       4.441   1.381  -4.829  1.00  0.00    -0.003 C 
ATOM     10  H   UNL     1       3.689   1.171  -4.063  1.00  0.00     0.031 H 
ATOM     11  H   UNL     1       5.346   0.818  -4.582  1.00  0.00     0.031 H 
ATOM     12  H   UNL     1       4.057   1.015  -5.786  1.00  0.00     0.031 H 
ENDBRANCH   5   9
BRANCH   4  13
ATOM     13  O   UNL     1       7.126   2.879  -4.356  1.00  0.00    -0.502 OA
ATOM     14  H   UNL     1       7.435   3.403  -3.590  1.00  0.00     0.293 HD
ENDBRANCH   4  13
TORSDOF 2
ENDMDL
MODEL 4
REMARK VINA RESULT:     5.666      1.331      2.435
REMARK INTER + INTRA:           4.565
REMARK INTER:                   5.070
REMARK INTRA:                  -0.505
REMARK CONF_INDEPENDENT:        0.597
REMARK UNBOUND:                 0.505
REMARK SMILES CC1=C(O)C(=O)CO1
REMARK SMILES IDX 8 1 7 2 5 3 3 4 2 5 6 6 1 9 4 13
REMARK H PARENT 7 7 7 8 1 10 1 11 1 12 4 14
REMARK Flexibility Score: inf
ROOT
ATOM      1  O   UNL     1       6.847   3.008  -4.543  1.00  0.00    -0.486 OA
ATOM      2  C   UNL     1       5.985   1.850  -4.482  1.00  0.00     0.154 C 
ATOM      3  C   UNL     1       4.629   2.393  -4.815  1.00  0.00     0.237 C 
ATOM      4  C   UNL     1       4.724   3.834  -5.013  1.00  0.00     0.200 C 
ATOM      5  C   UNL     1       6.018   4.093  -4.838  1.00  0.00     0.139 C 
ATOM      6  O   UNL     1       3.580   1.775  -4.908  1.00  0.00    -0.287 OA
ATOM      7  H   UNL     1       6.004   1.444  -3.468  1.00  0.00     0.080 H 
ATOM      8  H   UNL     1       6.311   1.118  -5.225  1.00  0.00     0.080 H 
ENDROOT
BRANCH   5   9
ATOM      9  C   UNL     1       6.676   5.426  -4.915  1.00  0.00    -0.003 C 
ATOM     10  H   UNL     1       5.949   6.233  -5.055  1.00  0.00     0.031 H 
ATOM     11  H   UNL     1       7.380   5.454  -5.752  1.00  0.00     0.031 H 
ATOM     12  H   UNL     1       7.227   5.629  -3.992  1.00  0.00     0.031 H 
ENDBRANCH   5   9
BRANCH   4  13
ATOM     13  O   UNL     1       3.686   4.659  -5.304  1.00  0.00    -0.502 OA
ATOM     14  H   UNL     1       2.932   4.070  -5.504  1.00  0.00     0.293 HD
ENDBRANCH   4  13
TORSDOF 2
ENDMDL
MODEL 5
REMARK VINA RESULT:     5.701      1.776      3.512
REMARK INTER + INTRA:           4.585
REMARK INTER:                   5.104
REMARK INTRA:                  -0.519
REMARK CONF_INDEPENDENT:        0.597
REMARK UNBOUND:                 0.519
REMARK SMILES CC1=C(O)C(=O)CO1
REMARK SMILES IDX 8 1 7 2 5 3 3 4 2 5 6 6 1 9 4 13
REMARK H PARENT 7 7 7 8 1 10 1 11 1 12 4 14
REMARK Flexibility Score: inf
ROOT
ATOM      1  O   UNL     1       6.686   4.876  -4.653  1.00  0.00    -0.486 OA
ATOM      2  C   UNL     1       5.659   5.756  -5.164  1.00  0.00     0.154 C 
ATOM      3  C   UNL     1       4.457   4.871  -5.290  1.00  0.00     0.237 C 
ATOM      4  C   UNL     1       4.817   3.513  -4.901  1.00  0.00     0.200 C 
ATOM      5  C   UNL     1       6.099   3.612  -4.556  1.00  0.00     0.139 C 
ATOM      6  O   UNL     1       3.337   5.182  -5.663  1.00  0.00    -0.287 OA
ATOM      7  H   UNL     1       5.968   6.135  -6.141  1.00  0.00     0.080 H 
ATOM      8  H   UNL     1       5.484   6.561  -4.447  1.00  0.00     0.080 H 
ENDROOT
BRANCH   5   9
ATOM      9  C   UNL     1       6.980   2.508  -4.085  1.00  0.00    -0.003 C 
ATOM     10  H   UNL     1       6.509   1.528  -4.210  1.00  0.00     0.031 H 
ATOM     11  H   UNL     1       7.219   2.640  -3.025  1.00  0.00     0.031 H 
ATOM     12  H   UNL     1       7.917   2.505  -4.651  1.00  0.00     0.031 H 
ENDBRANCH   5   9
BRANCH   4  13
ATOM     13  O   UNL     1       3.983   2.442  -4.915  1.00  0.00    -0.502 OA
ATOM     14  H   UNL     1       3.113   2.792  -5.191  1.00  0.00     0.293 HD
ENDBRANCH   4  13
TORSDOF 2
ENDMDL
MODEL 6
REMARK VINA RESULT:     6.224      5.681      5.742
REMARK INTER + INTRA:           5.123
REMARK INTER:                   5.627
REMARK INTRA:                  -0.505
REMARK CONF_INDEPENDENT:        0.597
REMARK UNBOUND:                 0.505
REMARK SMILES CC1=C(O)C(=O)CO1
REMARK SMILES IDX 8 1 7 2 5 3 3 4 2 5 6 6 1 9 4 13
REMARK H PARENT 7 7 7 8 1 10 1 11 1 12 4 14
REMARK Flexibility Score: inf
ROOT
ATOM      1  O   UNL     1       3.601   3.578  -1.163  1.00  0.00    -0.486 OA
ATOM      2  C   UNL     1       4.368   2.398  -0.831  1.00  0.00     0.154 C 
ATOM      3  C   UNL     1       4.452   2.433   0.664  1.00  0.00     0.237 C 
ATOM      4  C   UNL     1       3.784   3.631   1.156  1.00  0.00     0.200 C 
ATOM      5  C   UNL     1       3.333   4.219   0.049  1.00  0.00     0.139 C 
ATOM      6  O   UNL     1       4.989   1.620   1.401  1.00  0.00    -0.287 OA
ATOM      7  H   UNL     1       5.362   2.482  -1.279  1.00  0.00     0.080 H 
ATOM      8  H   UNL     1       3.834   1.511  -1.177  1.00  0.00     0.080 H 
ENDROOT
BRANCH   5   9
ATOM      9  C   UNL     1       2.579   5.500  -0.033  1.00  0.00    -0.003 C 
ATOM     10  H   UNL     1       2.594   6.044   0.916  1.00  0.00     0.031 H 
ATOM     11  H   UNL     1       1.535   5.308  -0.299  1.00  0.00     0.031 H 
ATOM     12  H   UNL     1       3.017   6.147  -0.798  1.00  0.00     0.031 H 
ENDBRANCH   5   9
BRANCH   4  13
ATOM     13  O   UNL     1       3.686   4.001   2.458  1.00  0.00    -0.502 OA
ATOM     14  H   UNL     1       4.288   3.404   2.945  1.00  0.00     0.293 HD
ENDBRANCH   4  13
TORSDOF 2
ENDMDL
