MODEL 1
REMARK VINA RESULT:    -4.315      0.000      0.000
REMARK INTER + INTRA:          -5.034
REMARK INTER:                  -4.912
REMARK INTRA:                  -0.122
REMARK CONF_INDEPENDENT:        0.597
REMARK UNBOUND:                 0.122
REMARK SMILES CC1=C(O)C(=O)CO1
REMARK SMILES IDX 8 1 7 2 5 3 3 4 2 5 6 6 1 9 4 13
REMARK H PARENT 7 7 7 8 1 10 1 11 1 12 4 14
REMARK Flexibility Score: inf
ROOT
ATOM      1  O   UNL     1      35.497  86.082  28.521  1.00  0.00    -0.486 OA
ATOM      2  C   UNL     1      35.244  87.470  28.834  1.00  0.00     0.154 C 
ATOM      3  C   UNL     1      34.729  88.041  27.548  1.00  0.00     0.237 C 
ATOM      4  C   UNL     1      34.736  87.003  26.525  1.00  0.00     0.200 C 
ATOM      5  C   UNL     1      35.188  85.928  27.167  1.00  0.00     0.139 C 
ATOM      6  O   UNL     1      34.359  89.185  27.334  1.00  0.00    -0.287 OA
ATOM      7  H   UNL     1      36.184  87.947  29.123  1.00  0.00     0.080 H 
ATOM      8  H   UNL     1      34.491  87.531  29.623  1.00  0.00     0.080 H 
ENDROOT
BRANCH   5   9
ATOM      9  C   UNL     1      35.408  84.574  26.589  1.00  0.00    -0.003 C 
ATOM     10  H   UNL     1      35.528  84.609  25.501  1.00  0.00     0.031 H 
ATOM     11  H   UNL     1      34.559  83.922  26.817  1.00  0.00     0.031 H 
ATOM     12  H   UNL     1      36.311  84.125  27.012  1.00  0.00     0.031 H 
ENDBRANCH   5   9
BRANCH   4  13
ATOM     13  O   UNL     1      34.359  87.169  25.231  1.00  0.00    -0.502 OA
ATOM     14  H   UNL     1      34.960  86.600  24.709  1.00  0.00     0.293 HD
ENDBRANCH   4  13
TORSDOF 2
ENDMDL
MODEL 2
REMARK VINA RESULT:    -4.060      3.166      3.646
REMARK INTER + INTRA:          -5.175
REMARK INTER:                  -4.656
REMARK INTRA:                  -0.519
REMARK CONF_INDEPENDENT:        0.597
REMARK UNBOUND:                 0.519
REMARK SMILES CC1=C(O)C(=O)CO1
REMARK SMILES IDX 8 1 7 2 5 3 3 4 2 5 6 6 1 9 4 13
REMARK H PARENT 7 7 7 8 1 10 1 11 1 12 4 14
REMARK Flexibility Score: inf
ROOT
ATOM      1  O   UNL     1      33.149  87.064  25.829  1.00  0.00    -0.486 OA
ATOM      2  C   UNL     1      33.608  87.656  27.065  1.00  0.00     0.154 C 
ATOM      3  C   UNL     1      32.493  87.387  28.028  1.00  0.00     0.237 C 
ATOM      4  C   UNL     1      31.413  86.697  27.334  1.00  0.00     0.200 C 
ATOM      5  C   UNL     1      31.874  86.558  26.092  1.00  0.00     0.139 C 
ATOM      6  O   UNL     1      32.441  87.683  29.212  1.00  0.00    -0.287 OA
ATOM      7  H   UNL     1      33.743  88.731  26.917  1.00  0.00     0.080 H 
ATOM      8  H   UNL     1      34.531  87.165  27.380  1.00  0.00     0.080 H 
ENDROOT
BRANCH   5   9
ATOM      9  C   UNL     1      31.164  85.925  24.947  1.00  0.00    -0.003 C 
ATOM     10  H   UNL     1      31.681  85.028  24.591  1.00  0.00     0.031 H 
ATOM     11  H   UNL     1      31.090  86.629  24.112  1.00  0.00     0.031 H 
ATOM     12  H   UNL     1      30.152  85.634  25.244  1.00  0.00     0.031 H 
ENDBRANCH   5   9
BRANCH   4  13
ATOM     13  O   UNL     1      30.234  86.318  27.889  1.00  0.00    -0.502 OA
ATOM     14  H   UNL     1      30.300  86.560  28.834  1.00  0.00     0.293 HD
ENDBRANCH   4  13
TORSDOF 2
ENDMDL
MODEL 3
REMARK VINA RESULT:    -3.987      3.252      4.246
REMARK INTER + INTRA:          -5.102
REMARK INTER:                  -4.583
REMARK INTRA:                  -0.519
REMARK CONF_INDEPENDENT:        0.597
REMARK UNBOUND:                 0.519
REMARK SMILES CC1=C(O)C(=O)CO1
REMARK SMILES IDX 8 1 7 2 5 3 3 4 2 5 6 6 1 9 4 13
REMARK H PARENT 7 7 7 8 1 10 1 11 1 12 4 14
REMARK Flexibility Score: inf
ROOT
ATOM      1  O   UNL     1      32.785  87.216  26.064  1.00  0.00    -0.486 OA
ATOM      2  C   UNL     1      31.504  86.557  25.940  1.00  0.00     0.154 C 
ATOM      3  C   UNL     1      30.941  86.601  27.327  1.00  0.00     0.237 C 
ATOM      4  C   UNL     1      31.907  87.232  28.218  1.00  0.00     0.200 C 
ATOM      5  C   UNL     1      32.921  87.547  27.414  1.00  0.00     0.139 C 
ATOM      6  O   UNL     1      29.859  86.183  27.708  1.00  0.00    -0.287 OA
ATOM      7  H   UNL     1      31.664  85.525  25.618  1.00  0.00     0.080 H 
ATOM      8  H   UNL     1      30.877  87.115  25.241  1.00  0.00     0.080 H 
ENDROOT
BRANCH   5   9
ATOM      9  C   UNL     1      34.195  88.209  27.808  1.00  0.00    -0.003 C 
ATOM     10  H   UNL     1      34.079  89.293  27.907  1.00  0.00     0.031 H 
ATOM     11  H   UNL     1      34.969  88.016  27.058  1.00  0.00     0.031 H 
ATOM     12  H   UNL     1      34.541  87.819  28.770  1.00  0.00     0.031 H 
ENDBRANCH   5   9
BRANCH   4  13
ATOM     13  O   UNL     1      31.744  87.419  29.553  1.00  0.00    -0.502 OA
ATOM     14  H   UNL     1      30.895  86.988  29.775  1.00  0.00     0.293 HD
ENDBRANCH   4  13
TORSDOF 2
ENDMDL
MODEL 4
REMARK VINA RESULT:    -3.900      3.042      3.472
REMARK INTER + INTRA:          -5.016
REMARK INTER:                  -4.497
REMARK INTRA:                  -0.519
REMARK CONF_INDEPENDENT:        0.597
REMARK UNBOUND:                 0.519
REMARK SMILES CC1=C(O)C(=O)CO1
REMARK SMILES IDX 8 1 7 2 5 3 3 4 2 5 6 6 1 9 4 13
REMARK H PARENT 7 7 7 8 1 10 1 11 1 12 4 14
REMARK Flexibility Score: inf
ROOT
ATOM      1  O   UNL     1      32.803  87.691  29.153  1.00  0.00    -0.486 OA
ATOM      2  C   UNL     1      31.411  87.308  29.209  1.00  0.00     0.154 C 
ATOM      3  C   UNL     1      31.084  86.933  27.796  1.00  0.00     0.237 C 
ATOM      4  C   UNL     1      32.259  87.145  26.959  1.00  0.00     0.200 C 
ATOM      5  C   UNL     1      33.183  87.576  27.814  1.00  0.00     0.139 C 
ATOM      6  O   UNL     1      30.021  86.520  27.359  1.00  0.00    -0.287 OA
ATOM      7  H   UNL     1      30.817  88.167  29.530  1.00  0.00     0.080 H 
ATOM      8  H   UNL     1      31.297  86.455  29.881  1.00  0.00     0.080 H 
ENDROOT
BRANCH   5   9
ATOM      9  C   UNL     1      34.584  87.960  27.489  1.00  0.00    -0.003 C 
ATOM     10  H   UNL     1      34.953  87.446  26.596  1.00  0.00     0.031 H 
ATOM     11  H   UNL     1      35.249  87.712  28.323  1.00  0.00     0.031 H 
ATOM     12  H   UNL     1      34.648  89.037  27.306  1.00  0.00     0.031 H 
ENDBRANCH   5   9
BRANCH   4  13
ATOM     13  O   UNL     1      32.321  86.933  25.619  1.00  0.00    -0.502 OA
ATOM     14  H   UNL     1      31.453  86.554  25.374  1.00  0.00     0.293 HD
ENDBRANCH   4  13
TORSDOF 2
ENDMDL
MODEL 5
REMARK VINA RESULT:    -3.837      1.525      3.429
REMARK INTER + INTRA:          -4.913
REMARK INTER:                  -4.433
REMARK INTRA:                  -0.479
REMARK CONF_INDEPENDENT:        0.597
REMARK UNBOUND:                 0.479
REMARK SMILES CC1=C(O)C(=O)CO1
REMARK SMILES IDX 8 1 7 2 5 3 3 4 2 5 6 6 1 9 4 13
REMARK H PARENT 7 7 7 8 1 10 1 11 1 12 4 14
REMARK Flexibility Score: inf
ROOT
ATOM      1  O   UNL     1      33.060  86.877  26.480  1.00  0.00    -0.486 OA
ATOM      2  C   UNL     1      33.916  85.920  25.815  1.00  0.00     0.154 C 
ATOM      3  C   UNL     1      35.111  85.822  26.713  1.00  0.00     0.237 C 
ATOM      4  C   UNL     1      34.946  86.739  27.834  1.00  0.00     0.200 C 
ATOM      5  C   UNL     1      33.755  87.294  27.617  1.00  0.00     0.139 C 
ATOM      6  O   UNL     1      36.095  85.113  26.572  1.00  0.00    -0.287 OA
ATOM      7  H   UNL     1      34.197  86.314  24.835  1.00  0.00     0.080 H 
ATOM      8  H   UNL     1      33.397  84.962  25.741  1.00  0.00     0.080 H 
ENDROOT
BRANCH   5   9
ATOM      9  C   UNL     1      33.089  88.325  28.459  1.00  0.00    -0.003 C 
ATOM     10  H   UNL     1      32.006  88.174  28.509  1.00  0.00     0.031 H 
ATOM     11  H   UNL     1      33.276  89.324  28.053  1.00  0.00     0.031 H 
ATOM     12  H   UNL     1      33.480  88.288  29.480  1.00  0.00     0.031 H 
ENDBRANCH   5   9
BRANCH   4  13
ATOM     13  O   UNL     1      35.846  86.933  28.832  1.00  0.00    -0.502 OA
ATOM     14  H   UNL     1      36.688  86.561  28.502  1.00  0.00     0.293 HD
ENDBRANCH   4  13
TORSDOF 2
ENDMDL
MODEL 6
REMARK VINA RESULT:    -3.795      1.095      2.205
REMARK INTER + INTRA:          -4.533
REMARK INTER:                  -4.391
REMARK INTRA:                  -0.141
REMARK CONF_INDEPENDENT:        0.597
REMARK UNBOUND:                 0.141
REMARK SMILES CC1=C(O)C(=O)CO1
REMARK SMILES IDX 8 1 7 2 5 3 3 4 2 5 6 6 1 9 4 13
REMARK H PARENT 7 7 7 8 1 10 1 11 1 12 4 14
REMARK Flexibility Score: inf
ROOT
ATOM      1  O   UNL     1      34.155  85.913  26.366  1.00  0.00    -0.486 OA
ATOM      2  C   UNL     1      33.473  87.182  26.488  1.00  0.00     0.154 C 
ATOM      3  C   UNL     1      34.175  87.860  27.625  1.00  0.00     0.237 C 
ATOM      4  C   UNL     1      35.198  86.969  28.158  1.00  0.00     0.200 C 
ATOM      5  C   UNL     1      35.113  85.890  27.382  1.00  0.00     0.139 C 
ATOM      6  O   UNL     1      33.959  88.973  28.080  1.00  0.00    -0.287 OA
ATOM      7  H   UNL     1      32.424  87.002  26.731  1.00  0.00     0.080 H 
ATOM      8  H   UNL     1      33.590  87.746  25.559  1.00  0.00     0.080 H 
ENDROOT
BRANCH   5   9
ATOM      9  C   UNL     1      35.930  84.650  27.492  1.00  0.00    -0.003 C 
ATOM     10  H   UNL     1      36.605  84.528  26.639  1.00  0.00     0.031 H 
ATOM     11  H   UNL     1      35.279  83.771  27.541  1.00  0.00     0.031 H 
ATOM     12  H   UNL     1      36.539  84.678  28.401  1.00  0.00     0.031 H 
ENDBRANCH   5   9
BRANCH   4  13
ATOM     13  O   UNL     1      36.013  87.243  29.209  1.00  0.00    -0.502 OA
ATOM     14  H   UNL     1      36.913  87.307  28.832  1.00  0.00     0.293 HD
ENDBRANCH   4  13
TORSDOF 2
ENDMDL
MODEL 7
REMARK VINA RESULT:    -3.762     10.446     11.740
REMARK INTER + INTRA:          -4.878
REMARK INTER:                  -4.359
REMARK INTRA:                  -0.519
REMARK CONF_INDEPENDENT:        0.597
REMARK UNBOUND:                 0.519
REMARK SMILES CC1=C(O)C(=O)CO1
REMARK SMILES IDX 8 1 7 2 5 3 3 4 2 5 6 6 1 9 4 13
REMARK H PARENT 7 7 7 8 1 10 1 11 1 12 4 14
REMARK Flexibility Score: inf
ROOT
ATOM      1  O   UNL     1      26.398  94.754  30.695  1.00  0.00    -0.486 OA
ATOM      2  C   UNL     1      27.400  94.353  29.732  1.00  0.00     0.154 C 
ATOM      3  C   UNL     1      26.767  93.202  29.013  1.00  0.00     0.237 C 
ATOM      4  C   UNL     1      25.456  92.935  29.592  1.00  0.00     0.200 C 
ATOM      5  C   UNL     1      25.333  93.864  30.538  1.00  0.00     0.139 C 
ATOM      6  O   UNL     1      27.232  92.550  28.091  1.00  0.00    -0.287 OA
ATOM      7  H   UNL     1      28.298  94.032  30.265  1.00  0.00     0.080 H 
ATOM      8  H   UNL     1      27.599  95.183  29.052  1.00  0.00     0.080 H 
ENDROOT
BRANCH   5   9
ATOM      9  C   UNL     1      24.178  94.047  31.459  1.00  0.00    -0.003 C 
ATOM     10  H   UNL     1      24.065  93.203  32.147  1.00  0.00     0.031 H 
ATOM     11  H   UNL     1      23.250  94.147  30.887  1.00  0.00     0.031 H 
ATOM     12  H   UNL     1      24.313  94.952  32.059  1.00  0.00     0.031 H 
ENDBRANCH   5   9
BRANCH   4  13
ATOM     13  O   UNL     1      24.610  91.946  29.206  1.00  0.00    -0.502 OA
ATOM     14  H   UNL     1      25.033  91.529  28.429  1.00  0.00     0.293 HD
ENDBRANCH   4  13
TORSDOF 2
ENDMDL
MODEL 8
REMARK VINA RESULT:    -3.738     10.278     11.439
REMARK INTER + INTRA:          -4.853
REMARK INTER:                  -4.334
REMARK INTRA:                  -0.519
REMARK CONF_INDEPENDENT:        0.597
REMARK UNBOUND:                 0.519
REMARK SMILES CC1=C(O)C(=O)CO1
REMARK SMILES IDX 8 1 7 2 5 3 3 4 2 5 6 6 1 9 4 13
REMARK H PARENT 7 7 7 8 1 10 1 11 1 12 4 14
REMARK Flexibility Score: inf
ROOT
ATOM      1  O   UNL     1      24.761  92.582  29.622  1.00  0.00    -0.486 OA
ATOM      2  C   UNL     1      24.609  93.546  30.688  1.00  0.00     0.154 C 
ATOM      3  C   UNL     1      25.925  94.261  30.717  1.00  0.00     0.237 C 
ATOM      4  C   UNL     1      26.811  93.677  29.717  1.00  0.00     0.200 C 
ATOM      5  C   UNL     1      26.066  92.732  29.147  1.00  0.00     0.139 C 
ATOM      6  O   UNL     1      26.259  95.183  31.445  1.00  0.00    -0.287 OA
ATOM      7  H   UNL     1      24.434  93.016  31.627  1.00  0.00     0.080 H 
ATOM      8  H   UNL     1      23.793  94.230  30.442  1.00  0.00     0.080 H 
ENDROOT
BRANCH   5   9
ATOM      9  C   UNL     1      26.484  91.808  28.057  1.00  0.00    -0.003 C 
ATOM     10  H   UNL     1      25.994  92.047  27.108  1.00  0.00     0.031 H 
ATOM     11  H   UNL     1      26.234  90.775  28.320  1.00  0.00     0.031 H 
ATOM     12  H   UNL     1      27.565  91.872  27.902  1.00  0.00     0.031 H 
ENDBRANCH   5   9
BRANCH   4  13
ATOM     13  O   UNL     1      28.093  94.058  29.481  1.00  0.00    -0.502 OA
ATOM     14  H   UNL     1      28.279  94.766  30.129  1.00  0.00     0.293 HD
ENDBRANCH   4  13
TORSDOF 2
ENDMDL
MODEL 9
REMARK VINA RESULT:    -3.594      8.659      9.777
REMARK INTER + INTRA:          -4.521
REMARK INTER:                  -4.190
REMARK INTRA:                  -0.330
REMARK CONF_INDEPENDENT:        0.597
REMARK UNBOUND:                 0.330
REMARK SMILES CC1=C(O)C(=O)CO1
REMARK SMILES IDX 8 1 7 2 5 3 3 4 2 5 6 6 1 9 4 13
REMARK H PARENT 7 7 7 8 1 10 1 11 1 12 4 14
REMARK Flexibility Score: inf
ROOT
ATOM      1  O   UNL     1      25.537  90.831  23.950  1.00  0.00    -0.486 OA
ATOM      2  C   UNL     1      25.755  90.266  22.637  1.00  0.00     0.154 C 
ATOM      3  C   UNL     1      27.222  89.964  22.615  1.00  0.00     0.237 C 
ATOM      4  C   UNL     1      27.820  90.393  23.873  1.00  0.00     0.200 C 
ATOM      5  C   UNL     1      26.789  90.873  24.567  1.00  0.00     0.139 C 
ATOM      6  O   UNL     1      27.866  89.452  21.713  1.00  0.00    -0.287 OA
ATOM      7  H   UNL     1      25.500  91.012  21.881  1.00  0.00     0.080 H 
ATOM      8  H   UNL     1      25.162  89.355  22.533  1.00  0.00     0.080 H 
ENDROOT
BRANCH   5   9
ATOM      9  C   UNL     1      26.834  91.461  25.934  1.00  0.00    -0.003 C 
ATOM     10  H   UNL     1      27.815  91.891  26.162  1.00  0.00     0.031 H 
ATOM     11  H   UNL     1      26.616  90.694  26.683  1.00  0.00     0.031 H 
ATOM     12  H   UNL     1      26.089  92.256  26.027  1.00  0.00     0.031 H 
ENDBRANCH   5   9
BRANCH   4  13
ATOM     13  O   UNL     1      29.136  90.298  24.194  1.00  0.00    -0.502 OA
ATOM     14  H   UNL     1      29.621  90.571  23.390  1.00  0.00     0.293 HD
ENDBRANCH   4  13
TORSDOF 2
ENDMDL
