@<TRIPOS>MOLECULE
6125-24-2.MOL
 11 11 0 0 0
SMALL
GASTEIGER

@<TRIPOS>ATOM
      1 C          -0.7145    0.0000    0.0000 C.ar    1  UNL1       -0.0150
      2 C          -0.7145   -0.8250    0.0000 C.ar    1  UNL1       -0.0040
      3 C          -1.4289   -1.2375    0.0000 C.ar    1  UNL1       -0.0003
      4 C          -2.1434   -0.8250    0.0000 C.ar    1  UNL1       -0.0000
      5 C          -2.1434    0.0000    0.0000 C.ar    1  UNL1       -0.0003
      6 C          -1.4289    0.4125    0.0000 C.ar    1  UNL1       -0.0040
      7 C          -0.0000    0.4125    0.0000 C.3     1  UNL1        0.1178
      8 C           0.7145    0.0000    0.0000 C.3     1  UNL1        0.3904
      9 N           1.4289    0.4125    0.0000 N.pl3   1  UNL1        0.0609
     10 O           1.4289    1.2375    0.0000 O.2     1  UNL1        0.0355
     11 O           2.1434    0.0000    0.0000 O.co2   1  UNL1       -0.5809
@<TRIPOS>UNITY_ATOM_ATTR
9 1
charge 1
11 1
charge -1
@<TRIPOS>BOND
     1     1     2   ar
     2     2     3   ar
     3     3     4   ar
     4     4     5   ar
     5     5     6   ar
     6     1     6   ar
     7     7     8    1
     8     9    10    2
     9     9    11    1
    10     8     9    1
    11     1     7    1
