0Chemicalbook60-12-8.MOL
 OpenBabel11162305013D

 19 19  0  0  0  0  0  0  0  0999 V2000
    1.3292   -0.2601    0.0900 C   0  0  0  0  0  0  0  0  0  0  0  0
    0.4072   -1.3103    0.0120 C   0  0  0  0  0  0  0  0  0  0  0  0
   -0.9614   -1.0442   -0.0669 C   0  0  0  0  0  0  0  0  0  0  0  0
   -1.4209    0.2728   -0.0781 C   0  0  0  0  0  0  0  0  0  0  0  0
   -0.5104    1.3245   -0.0149 C   0  0  0  0  0  0  0  0  0  0  0  0
    0.8571    1.0614    0.0687 C   0  0  0  0  0  0  0  0  0  0  0  0
    3.5001   -0.6775   -1.1646 C   0  0  0  0  0  0  0  0  0  0  0  0
    2.8123   -0.5321    0.1925 C   0  0  0  0  0  0  0  0  0  0  0  0
    3.4457    0.5317   -1.9140 O   0  0  0  0  0  0  0  0  0  0  0  0
    0.7453   -2.3446    0.0253 H   0  0  0  0  0  0  0  0  0  0  0  0
   -1.6735   -1.8648   -0.1135 H   0  0  0  0  0  0  0  0  0  0  0  0
   -2.4865    0.4779   -0.1336 H   0  0  0  0  0  0  0  0  0  0  0  0
   -0.8647    2.3529   -0.0234 H   0  0  0  0  0  0  0  0  0  0  0  0
    1.5569    1.8938    0.1220 H   0  0  0  0  0  0  0  0  0  0  0  0
    3.0590   -1.4812   -1.7640 H   0  0  0  0  0  0  0  0  0  0  0  0
    4.5571   -0.9140   -1.0106 H   0  0  0  0  0  0  0  0  0  0  0  0
    3.2816    0.2820    0.7591 H   0  0  0  0  0  0  0  0  0  0  0  0
    2.9679   -1.4465    0.7787 H   0  0  0  0  0  0  0  0  0  0  0  0
    2.5107    0.6716   -2.1507 H   0  0  0  0  0  0  0  0  0  0  0  0
  1  2  2  0  0  0  0
  1  6  1  0  0  0  0
  1  8  1  0  0  0  0
  2  3  1  0  0  0  0
  2 10  1  0  0  0  0
  3  4  2  0  0  0  0
  3 11  1  0  0  0  0
  4  5  1  0  0  0  0
  4 12  1  0  0  0  0
  5  6  2  0  0  0  0
  5 13  1  0  0  0  0
  6 14  1  0  0  0  0
  7  8  1  0  0  0  0
  7  9  1  0  0  0  0
  7 15  1  0  0  0  0
  7 16  1  0  0  0  0
  8 17  1  0  0  0  0
  8 18  1  0  0  0  0
  9 19  1  0  0  0  0
M  END
$$$$
