MODEL 1
REMARK VINA RESULT:    -5.849      0.000      0.000
REMARK INTER + INTRA:          -7.031
REMARK INTER:                  -6.744
REMARK INTRA:                  -0.287
REMARK CONF_INDEPENDENT:        0.895
REMARK UNBOUND:                 0.287
REMARK SMILES O=[N+]([O-])CCc1ccccc1
REMARK SMILES IDX 5 1 6 4 7 5 11 6 8 7 10 9 9 11 4 15 2 18 1 19 3 20
REMARK H PARENT 5 2 5 3 7 8 11 10 8 12 10 13 9 14 4 16 4 17
REMARK Flexibility Score: inf
ROOT
ATOM      1  C   UNL     1      34.734  87.095  26.261  1.00  0.00     0.037 C 
ATOM      2  H   UNL     1      35.744  87.211  25.845  1.00  0.00     0.038 H 
ATOM      3  H   UNL     1      34.124  87.873  25.781  1.00  0.00     0.038 H 
ENDROOT
BRANCH   1   4
ATOM      4  C   UNL     1      34.178  85.748  25.866  1.00  0.00    -0.041 A 
ATOM      5  C   UNL     1      33.007  85.648  25.100  1.00  0.00    -0.059 A 
ATOM      6  C   UNL     1      34.849  84.572  26.229  1.00  0.00    -0.059 A 
ATOM      7  C   UNL     1      32.516  84.400  24.713  1.00  0.00    -0.062 A 
ATOM      8  H   UNL     1      32.472  86.541  24.782  1.00  0.00     0.063 H 
ATOM      9  C   UNL     1      34.359  83.325  25.838  1.00  0.00    -0.062 A 
ATOM     10  H   UNL     1      35.767  84.615  26.812  1.00  0.00     0.063 H 
ATOM     11  C   UNL     1      33.192  83.238  25.081  1.00  0.00    -0.062 A 
ATOM     12  H   UNL     1      31.609  84.333  24.117  1.00  0.00     0.062 H 
ATOM     13  H   UNL     1      34.891  82.419  26.117  1.00  0.00     0.062 H 
ATOM     14  H   UNL     1      32.814  82.268  24.771  1.00  0.00     0.062 H 
ENDBRANCH   1   4
BRANCH   1  15
ATOM     15  C   UNL     1      34.776  87.293  27.767  1.00  0.00     0.207 C 
ATOM     16  H   UNL     1      35.695  87.785  28.102  1.00  0.00     0.111 H 
ATOM     17  H   UNL     1      34.651  86.360  28.326  1.00  0.00     0.111 H 
BRANCH  15  18
ATOM     18  N   UNL     1      33.630  88.180  28.139  1.00  0.00     0.020 N 
ATOM     19  O   UNL     1      33.652  89.340  27.709  1.00  0.00    -0.265 OA
ATOM     20  O   UNL     1      32.735  87.683  28.835  1.00  0.00    -0.265 OA
ENDBRANCH  15  18
ENDBRANCH   1  15
TORSDOF 3
ENDMDL
MODEL 2
REMARK VINA RESULT:    -5.842      0.072      1.733
REMARK INTER + INTRA:          -7.021
REMARK INTER:                  -6.737
REMARK INTRA:                  -0.284
REMARK CONF_INDEPENDENT:        0.895
REMARK UNBOUND:                 0.284
REMARK SMILES O=[N+]([O-])CCc1ccccc1
REMARK SMILES IDX 5 1 6 4 7 5 11 6 8 7 10 9 9 11 4 15 2 18 1 19 3 20
REMARK H PARENT 5 2 5 3 7 8 11 10 8 12 10 13 9 14 4 16 4 17
REMARK Flexibility Score: inf
ROOT
ATOM      1  C   UNL     1      34.731  87.029  26.274  1.00  0.00     0.037 C 
ATOM      2  H   UNL     1      35.744  87.176  25.875  1.00  0.00     0.038 H 
ATOM      3  H   UNL     1      34.111  87.804  25.804  1.00  0.00     0.038 H 
ENDROOT
BRANCH   1   4
ATOM      4  C   UNL     1      34.209  85.679  25.840  1.00  0.00    -0.041 A 
ATOM      5  C   UNL     1      34.867  84.498  26.215  1.00  0.00    -0.059 A 
ATOM      6  C   UNL     1      33.033  85.586  25.084  1.00  0.00    -0.059 A 
ATOM      7  C   UNL     1      34.362  83.254  25.835  1.00  0.00    -0.062 A 
ATOM      8  H   UNL     1      35.771  84.533  26.819  1.00  0.00     0.063 H 
ATOM      9  C   UNL     1      32.526  84.340  24.709  1.00  0.00    -0.062 A 
ATOM     10  H   UNL     1      32.491  86.482  24.788  1.00  0.00     0.063 H 
ATOM     11  C   UNL     1      33.191  83.174  25.084  1.00  0.00    -0.062 A 
ATOM     12  H   UNL     1      34.877  82.344  26.133  1.00  0.00     0.062 H 
ATOM     13  H   UNL     1      31.608  84.278  24.131  1.00  0.00     0.062 H 
ATOM     14  H   UNL     1      32.793  82.204  24.797  1.00  0.00     0.062 H 
ENDBRANCH   1   4
BRANCH   1  15
ATOM     15  C   UNL     1      34.749  87.192  27.785  1.00  0.00     0.207 C 
ATOM     16  H   UNL     1      35.683  87.630  28.151  1.00  0.00     0.111 H 
ATOM     17  H   UNL     1      34.565  86.255  28.320  1.00  0.00     0.111 H 
BRANCH  15  18
ATOM     18  N   UNL     1      33.640  88.127  28.152  1.00  0.00     0.020 N 
ATOM     19  O   UNL     1      32.748  87.683  28.885  1.00  0.00    -0.265 OA
ATOM     20  O   UNL     1      33.705  89.281  27.709  1.00  0.00    -0.265 OA
ENDBRANCH  15  18
ENDBRANCH   1  15
TORSDOF 3
ENDMDL
MODEL 3
REMARK VINA RESULT:    -5.748     10.105     11.312
REMARK INTER + INTRA:          -6.842
REMARK INTER:                  -6.643
REMARK INTRA:                  -0.199
REMARK CONF_INDEPENDENT:        0.895
REMARK UNBOUND:                 0.199
REMARK SMILES O=[N+]([O-])CCc1ccccc1
REMARK SMILES IDX 5 1 6 4 7 5 11 6 8 7 10 9 9 11 4 15 2 18 1 19 3 20
REMARK H PARENT 5 2 5 3 7 8 11 10 8 12 10 13 9 14 4 16 4 17
REMARK Flexibility Score: inf
ROOT
ATOM      1  C   UNL     1      26.383  92.024  28.083  1.00  0.00     0.037 C 
ATOM      2  H   UNL     1      26.760  91.076  28.490  1.00  0.00     0.038 H 
ATOM      3  H   UNL     1      25.414  91.786  27.623  1.00  0.00     0.038 H 
ENDROOT
BRANCH   1   4
ATOM      4  C   UNL     1      26.142  92.997  29.213  1.00  0.00    -0.041 A 
ATOM      5  C   UNL     1      24.971  92.933  29.982  1.00  0.00    -0.059 A 
ATOM      6  C   UNL     1      27.109  93.960  29.535  1.00  0.00    -0.059 A 
ATOM      7  C   UNL     1      24.769  93.817  31.043  1.00  0.00    -0.062 A 
ATOM      8  H   UNL     1      24.208  92.185  29.773  1.00  0.00     0.063 H 
ATOM      9  C   UNL     1      26.907  94.840  30.600  1.00  0.00    -0.062 A 
ATOM     10  H   UNL     1      28.035  94.028  28.967  1.00  0.00     0.063 H 
ATOM     11  C   UNL     1      25.737  94.769  31.353  1.00  0.00    -0.062 A 
ATOM     12  H   UNL     1      23.859  93.757  31.635  1.00  0.00     0.062 H 
ATOM     13  H   UNL     1      27.667  95.577  30.847  1.00  0.00     0.062 H 
ATOM     14  H   UNL     1      25.584  95.451  32.186  1.00  0.00     0.062 H 
ENDBRANCH   1   4
BRANCH   1  15
ATOM     15  C   UNL     1      27.358  92.558  27.047  1.00  0.00     0.207 C 
ATOM     16  H   UNL     1      28.403  92.455  27.358  1.00  0.00     0.111 H 
ATOM     17  H   UNL     1      27.171  93.604  26.780  1.00  0.00     0.111 H 
BRANCH  15  18
ATOM     18  N   UNL     1      27.179  91.752  25.800  1.00  0.00     0.020 N 
ATOM     19  O   UNL     1      26.484  92.248  24.903  1.00  0.00    -0.265 OA
ATOM     20  O   UNL     1      27.752  90.656  25.748  1.00  0.00    -0.265 OA
ENDBRANCH  15  18
ENDBRANCH   1  15
TORSDOF 3
ENDMDL
MODEL 4
REMARK VINA RESULT:    -5.505      1.458      2.124
REMARK INTER + INTRA:          -6.707
REMARK INTER:                  -6.400
REMARK INTRA:                  -0.307
REMARK CONF_INDEPENDENT:        0.895
REMARK UNBOUND:                 0.307
REMARK SMILES O=[N+]([O-])CCc1ccccc1
REMARK SMILES IDX 5 1 6 4 7 5 11 6 8 7 10 9 9 11 4 15 2 18 1 19 3 20
REMARK H PARENT 5 2 5 3 7 8 11 10 8 12 10 13 9 14 4 16 4 17
REMARK Flexibility Score: inf
ROOT
ATOM      1  C   UNL     1      34.634  86.440  26.617  1.00  0.00     0.037 C 
ATOM      2  H   UNL     1      34.975  85.645  27.293  1.00  0.00     0.038 H 
ATOM      3  H   UNL     1      35.390  86.498  25.822  1.00  0.00     0.038 H 
ENDROOT
BRANCH   1   4
ATOM      4  C   UNL     1      33.319  86.040  25.990  1.00  0.00    -0.041 A 
ATOM      5  C   UNL     1      32.104  86.534  26.486  1.00  0.00    -0.059 A 
ATOM      6  C   UNL     1      33.298  85.194  24.872  1.00  0.00    -0.059 A 
ATOM      7  C   UNL     1      30.895  86.183  25.883  1.00  0.00    -0.062 A 
ATOM      8  H   UNL     1      32.085  87.209  27.339  1.00  0.00     0.063 H 
ATOM      9  C   UNL     1      32.088  84.848  24.267  1.00  0.00    -0.062 A 
ATOM     10  H   UNL     1      34.223  84.804  24.454  1.00  0.00     0.063 H 
ATOM     11  C   UNL     1      30.887  85.341  24.772  1.00  0.00    -0.062 A 
ATOM     12  H   UNL     1      29.959  86.574  26.273  1.00  0.00     0.062 H 
ATOM     13  H   UNL     1      32.082  84.198  23.394  1.00  0.00     0.062 H 
ATOM     14  H   UNL     1      29.946  85.077  24.297  1.00  0.00     0.062 H 
ENDBRANCH   1   4
BRANCH   1  15
ATOM     15  C   UNL     1      34.545  87.753  27.376  1.00  0.00     0.207 C 
ATOM     16  H   UNL     1      33.756  88.409  26.995  1.00  0.00     0.111 H 
ATOM     17  H   UNL     1      35.490  88.308  27.386  1.00  0.00     0.111 H 
BRANCH  15  18
ATOM     18  N   UNL     1      34.215  87.432  28.799  1.00  0.00     0.020 N 
ATOM     19  O   UNL     1      35.115  86.933  29.487  1.00  0.00    -0.265 OA
ATOM     20  O   UNL     1      33.073  87.703  29.189  1.00  0.00    -0.265 OA
ENDBRANCH  15  18
ENDBRANCH   1  15
TORSDOF 3
ENDMDL
