MODEL 1
REMARK VINA RESULT:    -5.071      0.000      0.000
REMARK INTER + INTRA:          -6.062
REMARK INTER:                  -5.965
REMARK INTRA:                  -0.096
REMARK CONF_INDEPENDENT:        0.895
REMARK UNBOUND:                 0.096
REMARK SMILES OCCc1ccccc1
REMARK SMILES IDX 3 1 4 4 5 5 9 6 6 7 8 9 7 11 2 15 1 18
REMARK H PARENT 3 2 3 3 5 8 9 10 6 12 8 13 7 14 2 16 2 17 1 19
REMARK Flexibility Score: inf
ROOT
ATOM      1  C   UNL     1       4.982  -2.946  19.518  1.00  0.00    -0.005 C 
ATOM      2  H   UNL     1       4.505  -1.957  19.514  1.00  0.00     0.034 H 
ATOM      3  H   UNL     1       4.407  -3.565  20.217  1.00  0.00     0.034 H 
ENDROOT
BRANCH   1   4
ATOM      4  C   UNL     1       4.881  -3.541  18.133  1.00  0.00    -0.046 A 
ATOM      5  C   UNL     1       6.005  -4.098  17.508  1.00  0.00    -0.059 A 
ATOM      6  C   UNL     1       3.657  -3.530  17.447  1.00  0.00    -0.059 A 
ATOM      7  C   UNL     1       5.900  -4.643  16.225  1.00  0.00    -0.062 A 
ATOM      8  H   UNL     1       6.966  -4.119  18.015  1.00  0.00     0.063 H 
ATOM      9  C   UNL     1       3.556  -4.073  16.167  1.00  0.00    -0.062 A 
ATOM     10  H   UNL     1       2.772  -3.098  17.914  1.00  0.00     0.063 H 
ATOM     11  C   UNL     1       4.677  -4.630  15.557  1.00  0.00    -0.062 A 
ATOM     12  H   UNL     1       6.774  -5.081  15.749  1.00  0.00     0.062 H 
ATOM     13  H   UNL     1       2.602  -4.062  15.647  1.00  0.00     0.062 H 
ATOM     14  H   UNL     1       4.597  -5.058  14.560  1.00  0.00     0.062 H 
ENDBRANCH   1   4
BRANCH   1  15
ATOM     15  C   UNL     1       6.422  -2.822  20.013  1.00  0.00     0.047 C 
ATOM     16  H   UNL     1       7.063  -2.494  19.188  1.00  0.00     0.057 H 
ATOM     17  H   UNL     1       6.517  -2.091  20.823  1.00  0.00     0.057 H 
BRANCH  15  18
ATOM     18  O   UNL     1       6.930  -4.073  20.468  1.00  0.00    -0.396 OA
ATOM     19  H   UNL     1       7.901  -4.004  20.445  1.00  0.00     0.210 HD
ENDBRANCH  15  18
ENDBRANCH   1  15
TORSDOF 3
ENDMDL
MODEL 2
REMARK VINA RESULT:    -4.579      2.051      3.816
REMARK INTER + INTRA:          -5.578
REMARK INTER:                  -5.474
REMARK INTRA:                  -0.104
REMARK CONF_INDEPENDENT:        0.895
REMARK UNBOUND:                 0.104
REMARK SMILES OCCc1ccccc1
REMARK SMILES IDX 3 1 4 4 5 5 9 6 6 7 8 9 7 11 2 15 1 18
REMARK H PARENT 3 2 3 3 5 8 9 10 6 12 8 13 7 14 2 16 2 17 1 19
REMARK Flexibility Score: inf
ROOT
ATOM      1  C   UNL     1       5.857  -4.398  16.342  1.00  0.00    -0.005 C 
ATOM      2  H   UNL     1       6.552  -3.700  15.857  1.00  0.00     0.034 H 
ATOM      3  H   UNL     1       6.337  -5.384  16.313  1.00  0.00     0.034 H 
ENDROOT
BRANCH   1   4
ATOM      4  C   UNL     1       5.672  -3.981  17.782  1.00  0.00    -0.046 A 
ATOM      5  C   UNL     1       6.658  -4.253  18.739  1.00  0.00    -0.059 A 
ATOM      6  C   UNL     1       4.499  -3.325  18.183  1.00  0.00    -0.059 A 
ATOM      7  C   UNL     1       6.476  -3.866  20.070  1.00  0.00    -0.062 A 
ATOM      8  H   UNL     1       7.578  -4.761  18.457  1.00  0.00     0.063 H 
ATOM      9  C   UNL     1       4.318  -2.941  19.511  1.00  0.00    -0.062 A 
ATOM     10  H   UNL     1       3.718  -3.108  17.454  1.00  0.00     0.063 H 
ATOM     11  C   UNL     1       5.307  -3.210  20.454  1.00  0.00    -0.062 A 
ATOM     12  H   UNL     1       7.248  -4.072  20.806  1.00  0.00     0.062 H 
ATOM     13  H   UNL     1       3.406  -2.431  19.809  1.00  0.00     0.062 H 
ATOM     14  H   UNL     1       5.168  -2.906  21.488  1.00  0.00     0.062 H 
ENDBRANCH   1   4
BRANCH   1  15
ATOM     15  C   UNL     1       4.545  -4.448  15.560  1.00  0.00     0.047 C 
ATOM     16  H   UNL     1       3.966  -3.541  15.765  1.00  0.00     0.057 H 
ATOM     17  H   UNL     1       4.713  -4.503  14.479  1.00  0.00     0.057 H 
BRANCH  15  18
ATOM     18  O   UNL     1       3.742  -5.557  15.951  1.00  0.00    -0.396 OA
ATOM     19  H   UNL     1       4.329  -6.171  16.430  1.00  0.00     0.210 HD
ENDBRANCH  15  18
ENDBRANCH   1  15
TORSDOF 3
ENDMDL
MODEL 3
REMARK VINA RESULT:    -4.148      2.209      3.962
REMARK INTER + INTRA:          -5.146
REMARK INTER:                  -5.043
REMARK INTRA:                  -0.103
REMARK CONF_INDEPENDENT:        0.895
REMARK UNBOUND:                 0.103
REMARK SMILES OCCc1ccccc1
REMARK SMILES IDX 3 1 4 4 5 5 9 6 6 7 8 9 7 11 2 15 1 18
REMARK H PARENT 3 2 3 3 5 8 9 10 6 12 8 13 7 14 2 16 2 17 1 19
REMARK Flexibility Score: inf
ROOT
ATOM      1  C   UNL     1       3.441  -3.729  17.070  1.00  0.00    -0.005 C 
ATOM      2  H   UNL     1       3.787  -3.144  16.207  1.00  0.00     0.034 H 
ATOM      3  H   UNL     1       3.297  -4.755  16.711  1.00  0.00     0.034 H 
ENDROOT
BRANCH   1   4
ATOM      4  C   UNL     1       4.520  -3.722  18.127  1.00  0.00    -0.046 A 
ATOM      5  C   UNL     1       4.371  -2.969  19.299  1.00  0.00    -0.059 A 
ATOM      6  C   UNL     1       5.696  -4.463  17.941  1.00  0.00    -0.059 A 
ATOM      7  C   UNL     1       5.376  -2.967  20.270  1.00  0.00    -0.062 A 
ATOM      8  H   UNL     1       3.470  -2.384  19.470  1.00  0.00     0.063 H 
ATOM      9  C   UNL     1       6.699  -4.458  18.910  1.00  0.00    -0.062 A 
ATOM     10  H   UNL     1       5.834  -5.052  17.034  1.00  0.00     0.063 H 
ATOM     11  C   UNL     1       6.539  -3.712  20.074  1.00  0.00    -0.062 A 
ATOM     12  H   UNL     1       5.250  -2.388  21.180  1.00  0.00     0.062 H 
ATOM     13  H   UNL     1       7.605  -5.039  18.755  1.00  0.00     0.062 H 
ATOM     14  H   UNL     1       7.318  -3.713  20.832  1.00  0.00     0.062 H 
ENDBRANCH   1   4
BRANCH   1  15
ATOM     15  C   UNL     1       2.108  -3.173  17.569  1.00  0.00     0.047 C 
ATOM     16  H   UNL     1       2.280  -2.216  18.073  1.00  0.00     0.057 H 
ATOM     17  H   UNL     1       1.402  -3.000  16.750  1.00  0.00     0.057 H 
BRANCH  15  18
ATOM     18  O   UNL     1       1.499  -4.044  18.518  1.00  0.00    -0.396 OA
ATOM     19  H   UNL     1       1.346  -3.515  19.323  1.00  0.00     0.210 HD
ENDBRANCH  15  18
ENDBRANCH   1  15
TORSDOF 3
ENDMDL
MODEL 4
REMARK VINA RESULT:    -4.080      1.508      2.323
REMARK INTER + INTRA:          -5.074
REMARK INTER:                  -4.975
REMARK INTRA:                  -0.099
REMARK CONF_INDEPENDENT:        0.895
REMARK UNBOUND:                 0.099
REMARK SMILES OCCc1ccccc1
REMARK SMILES IDX 3 1 4 4 5 5 9 6 6 7 8 9 7 11 2 15 1 18
REMARK H PARENT 3 2 3 3 5 8 9 10 6 12 8 13 7 14 2 16 2 17 1 19
REMARK Flexibility Score: inf
ROOT
ATOM      1  C   UNL     1       6.111  -4.662  18.180  1.00  0.00    -0.005 C 
ATOM      2  H   UNL     1       6.372  -5.653  18.574  1.00  0.00     0.034 H 
ATOM      3  H   UNL     1       6.652  -4.553  17.232  1.00  0.00     0.034 H 
ENDROOT
BRANCH   1   4
ATOM      4  C   UNL     1       4.626  -4.621  17.908  1.00  0.00    -0.046 A 
ATOM      5  C   UNL     1       4.094  -3.730  16.966  1.00  0.00    -0.059 A 
ATOM      6  C   UNL     1       3.755  -5.468  18.610  1.00  0.00    -0.059 A 
ATOM      7  C   UNL     1       2.718  -3.698  16.725  1.00  0.00    -0.062 A 
ATOM      8  H   UNL     1       4.745  -3.062  16.408  1.00  0.00     0.063 H 
ATOM      9  C   UNL     1       2.382  -5.432  18.369  1.00  0.00    -0.062 A 
ATOM     10  H   UNL     1       4.148  -6.164  19.350  1.00  0.00     0.063 H 
ATOM     11  C   UNL     1       1.864  -4.548  17.426  1.00  0.00    -0.062 A 
ATOM     12  H   UNL     1       2.313  -3.011  15.986  1.00  0.00     0.062 H 
ATOM     13  H   UNL     1       1.718  -6.095  18.917  1.00  0.00     0.062 H 
ATOM     14  H   UNL     1       0.794  -4.525  17.234  1.00  0.00     0.062 H 
ENDBRANCH   1   4
BRANCH   1  15
ATOM     15  C   UNL     1       6.572  -3.581  19.156  1.00  0.00     0.047 C 
ATOM     16  H   UNL     1       7.464  -3.087  18.756  1.00  0.00     0.057 H 
ATOM     17  H   UNL     1       5.805  -2.815  19.313  1.00  0.00     0.057 H 
BRANCH  15  18
ATOM     18  O   UNL     1       6.929  -4.133  20.420  1.00  0.00    -0.396 OA
ATOM     19  H   UNL     1       7.749  -3.687  20.698  1.00  0.00     0.210 HD
ENDBRANCH  15  18
ENDBRANCH   1  15
TORSDOF 3
ENDMDL
MODEL 5
REMARK VINA RESULT:    -3.185      2.480      3.556
REMARK INTER + INTRA:          -4.157
REMARK INTER:                  -4.080
REMARK INTRA:                  -0.077
REMARK CONF_INDEPENDENT:        0.895
REMARK UNBOUND:                 0.077
REMARK SMILES OCCc1ccccc1
REMARK SMILES IDX 3 1 4 4 5 5 9 6 6 7 8 9 7 11 2 15 1 18
REMARK H PARENT 3 2 3 3 5 8 9 10 6 12 8 13 7 14 2 16 2 17 1 19
REMARK Flexibility Score: inf
ROOT
ATOM      1  C   UNL     1       5.096  -4.667  17.643  1.00  0.00    -0.005 C 
ATOM      2  H   UNL     1       5.534  -4.098  18.473  1.00  0.00     0.034 H 
ATOM      3  H   UNL     1       5.383  -5.714  17.799  1.00  0.00     0.034 H 
ENDROOT
BRANCH   1   4
ATOM      4  C   UNL     1       3.591  -4.553  17.714  1.00  0.00    -0.046 A 
ATOM      5  C   UNL     1       2.803  -5.660  18.053  1.00  0.00    -0.059 A 
ATOM      6  C   UNL     1       2.961  -3.333  17.423  1.00  0.00    -0.059 A 
ATOM      7  C   UNL     1       1.411  -5.544  18.112  1.00  0.00    -0.062 A 
ATOM      8  H   UNL     1       3.264  -6.618  18.282  1.00  0.00     0.063 H 
ATOM      9  C   UNL     1       1.572  -3.220  17.481  1.00  0.00    -0.062 A 
ATOM     10  H   UNL     1       3.555  -2.461  17.153  1.00  0.00     0.063 H 
ATOM     11  C   UNL     1       0.798  -4.325  17.826  1.00  0.00    -0.062 A 
ATOM     12  H   UNL     1       0.806  -6.404  18.385  1.00  0.00     0.062 H 
ATOM     13  H   UNL     1       1.095  -2.269  17.257  1.00  0.00     0.062 H 
ATOM     14  H   UNL     1      -0.284  -4.235  17.876  1.00  0.00     0.062 H 
ENDBRANCH   1   4
BRANCH   1  15
ATOM     15  C   UNL     1       5.673  -4.173  16.317  1.00  0.00     0.047 C 
ATOM     16  H   UNL     1       4.856  -4.003  15.607  1.00  0.00     0.057 H 
ATOM     17  H   UNL     1       6.219  -3.231  16.433  1.00  0.00     0.057 H 
BRANCH  15  18
ATOM     18  O   UNL     1       6.545  -5.136  15.733  1.00  0.00    -0.396 OA
ATOM     19  H   UNL     1       6.955  -5.624  16.470  1.00  0.00     0.210 HD
ENDBRANCH  15  18
ENDBRANCH   1  15
TORSDOF 3
ENDMDL
MODEL 6
REMARK VINA RESULT:    -2.884      2.791      3.831
REMARK INTER + INTRA:          -3.879
REMARK INTER:                  -3.779
REMARK INTRA:                  -0.100
REMARK CONF_INDEPENDENT:        0.895
REMARK UNBOUND:                 0.100
REMARK SMILES OCCc1ccccc1
REMARK SMILES IDX 3 1 4 4 5 5 9 6 6 7 8 9 7 11 2 15 1 18
REMARK H PARENT 3 2 3 3 5 8 9 10 6 12 8 13 7 14 2 16 2 17 1 19
REMARK Flexibility Score: inf
ROOT
ATOM      1  C   UNL     1       5.878  -4.355  17.609  1.00  0.00    -0.005 C 
ATOM      2  H   UNL     1       6.419  -3.655  18.258  1.00  0.00     0.034 H 
ATOM      3  H   UNL     1       6.537  -5.221  17.469  1.00  0.00     0.034 H 
ENDROOT
BRANCH   1   4
ATOM      4  C   UNL     1       4.620  -4.803  18.316  1.00  0.00    -0.046 A 
ATOM      5  C   UNL     1       3.487  -3.980  18.354  1.00  0.00    -0.059 A 
ATOM      6  C   UNL     1       4.576  -6.050  18.958  1.00  0.00    -0.059 A 
ATOM      7  C   UNL     1       2.329  -4.402  19.013  1.00  0.00    -0.062 A 
ATOM      8  H   UNL     1       3.493  -3.008  17.865  1.00  0.00     0.063 H 
ATOM      9  C   UNL     1       3.421  -6.468  19.618  1.00  0.00    -0.062 A 
ATOM     10  H   UNL     1       5.448  -6.703  18.944  1.00  0.00     0.063 H 
ATOM     11  C   UNL     1       2.298  -5.645  19.644  1.00  0.00    -0.062 A 
ATOM     12  H   UNL     1       1.451  -3.763  19.031  1.00  0.00     0.062 H 
ATOM     13  H   UNL     1       3.398  -7.437  20.109  1.00  0.00     0.062 H 
ATOM     14  H   UNL     1       1.395  -5.974  20.153  1.00  0.00     0.062 H 
ENDBRANCH   1   4
BRANCH   1  15
ATOM     15  C   UNL     1       5.604  -3.700  16.256  1.00  0.00     0.047 C 
ATOM     16  H   UNL     1       4.757  -3.012  16.351  1.00  0.00     0.057 H 
ATOM     17  H   UNL     1       6.465  -3.126  15.896  1.00  0.00     0.057 H 
BRANCH  15  18
ATOM     18  O   UNL     1       5.255  -4.664  15.267  1.00  0.00    -0.396 OA
ATOM     19  H   UNL     1       5.994  -4.693  14.634  1.00  0.00     0.210 HD
ENDBRANCH  15  18
ENDBRANCH   1  15
TORSDOF 3
ENDMDL
